/*---------------------------------------------------------------------------*\
  =========                 |
  \\      /  F ield         | OpenFOAM: The Open Source CFD Toolbox
   \\    /   O peration     | Website:  https://openfoam.org
    \\  /    A nd           | Version:  12
     \\/     M anipulation  |
\*---------------------------------------------------------------------------*/
Build  : 12-93bacf557635
Exec   : foamRun -solver incompressibleFluid -parallel
Date   : Apr 23 2025
Time   : 18:31:53
Host   : "TheFirstMaki"
PID    : 19302
I/O    : uncollated
Case   : /home/jose_da_silva/OpenFOAM/Joao-12/Pitz_Daily_Steady_OF_12
nProcs : 2
Slaves : 1("TheFirstMaki.19303")
Pstream initialised with:
    floatTransfer      : false
    nProcsSimpleSum    : 0
    commsType          : nonBlocking
    polling iterations : 0
sigFpe : Enabling floating point exception trapping (FOAM_SIGFPE).
fileModificationChecking : Monitoring run-time modified files using timeStampMaster (fileModificationSkew 10)
allowSystemOperations : Allowing user-supplied system call operations

// * * * * * * * * * * * * * * * * * * * * * * * * * * * * * * * * * * * * * //
Create time

Create mesh for time = 0

Selecting solver incompressibleFluid
Selecting viscosity model constant
Selecting turbulence model type RAS
Selecting RAS turbulence model kEpsilon
Selecting generalised Newtonian model Newtonian
RAS
{
    model           kEpsilon;
    turbulence      on;
    printCoeffs     on;
    viscosityModel  Newtonian;
    Cmu             0.09;
    C1              1.44;
    C2              1.92;
    C3              0;
    sigmak          1;
    sigmaEps        1.3;
}

No MRF models present


SIMPLE: Convergence criteria found
        p: tolerance 0.001
        U: tolerance 0.001
        k: tolerance 0.001
        epsilon: tolerance 0.001


SIMPLE: Operating solver in steady-state mode with 1 outer corrector
SIMPLE: Operating solver in SIMPLE mode



Starting time loop

streamlines streamlines:
    automatic track length specified through number of sub cycles : 5

    - selecting all cells
    - selected 12225 cell(s) with volume 1.4516039e-05


    - selecting all cells
    - selected 12225 cell(s) with volume 1.4516039e-05


    - selecting all cells
    - selected 12225 cell(s) with volume 1.4516039e-05


    - selecting all cells
    - selected 12225 cell(s) with volume 1.4516039e-05


surfaceFieldValue flowRateOutlet:
    total faces  = 57
    total area   = 3.32e-05


streamlines streamlines write:
    Seeded 10 particles
    Sampled 114 locations
volFieldValue cellMin write:
    min() of p = 0 at location (0.28742792 -0.016557021 0) in cell 0 on processor 1
    min() of epsilon = 14.855 at location (0.28742792 -0.016557021 0) in cell 0 on processor 1
    min() of k = 0.375 at location (0.28742792 -0.016557021 0) in cell 0 on processor 1

volFieldValue cellMax write:
    max() of p = 0 at location (0.28742792 -0.016557021 0) in cell 0 on processor 1
    max() of epsilon = 14.855 at location (0.28742792 -0.016557021 0) in cell 0 on processor 1
    max() of k = 0.375 at location (0.28742792 -0.016557021 0) in cell 0 on processor 1

volFieldValue cellMinMag write:
    minMag() of U = 0 at location (0.28742792 -0.016557021 0) in cell 0 on processor 1

volFieldValue cellMaxMag write:
    maxMag() of U = 0 at location (0.28742792 -0.016557021 0) in cell 0 on processor 1

surfaceFieldValue flowRateOutlet write:
    sum("outlet") of phi = 0

Time = 1s

DILUPBiCGStab:  Solving for Ux, Initial residual = 1, Final residual = 4.7069569e-09, No Iterations 7
DILUPBiCGStab:  Solving for Uy, Initial residual = 0, Final residual = 0, No Iterations 0
GAMG:  Solving for p, Initial residual = 1, Final residual = 0.008904602, No Iterations 24
GAMG:  Solving for p, Initial residual = 0.0082160723, Final residual = 7.4518958e-05, No Iterations 9
GAMG:  Solving for p, Initial residual = 0.0031355616, Final residual = 2.7851411e-05, No Iterations 8
time step continuity errors : sum local = 0.040370732, global = 0.0043549104, cumulative = 0.0043549104
DILUPBiCGStab:  Solving for epsilon, Initial residual = 0.22178853, Final residual = 9.3442112e-09, No Iterations 8
DILUPBiCGStab:  Solving for k, Initial residual = 1, Final residual = 2.7682596e-09, No Iterations 10
ExecutionTime = 0.419927 s  ClockTime = 1 s

volFieldValue cellMin write:
    min() of p = 8.9981734 at location (0.28742795 0.0071226492 -3.5848485e-20) in cell 675 on processor 1
    min() of epsilon = 12.719158 at location (0.24147344 -0.010038764 0) in cell 336 on processor 1
    min() of k = 0.29289114 at location (0.00026417399 -0.024835675 2.1917467e-20) in cell 1321 on processor 0

volFieldValue cellMax write:
    max() of p = 733.9813 at location (-0.0198086 0.000489703 0) in cell 2 on processor 0
    max() of epsilon = 1033.4129 at location (0.28742806 0.016783751 2.9551954e-20) in cell 1625 on processor 1
    max() of k = 8.8114 at location (0.0002644794 0.00015994031 0) in cell 172 on processor 0

volFieldValue cellMinMag write:
    minMag() of U = 0.16885034 at location (0.00026417399 -0.024835675 2.1917467e-20) in cell 1321 on processor 0

volFieldValue cellMaxMag write:
    maxMag() of U = 16.55645 at location (-0.01138285 0.01409185 0) in cell 339 on processor 0

surfaceFieldValue flowRateOutlet write:
    sum("outlet") of phi = 0.00025406322

Time = 2s

DILUPBiCGStab:  Solving for Ux, Initial residual = 0.4281574, Final residual = 8.2761268e-09, No Iterations 9
DILUPBiCGStab:  Solving for Uy, Initial residual = 0.27629514, Final residual = 2.3770991e-09, No Iterations 10
GAMG:  Solving for p, Initial residual = 0.040050871, Final residual = 0.00037607548, No Iterations 45
GAMG:  Solving for p, Initial residual = 0.047900826, Final residual = 0.00043830935, No Iterations 18
GAMG:  Solving for p, Initial residual = 0.001809185, Final residual = 1.8037962e-05, No Iterations 37
time step continuity errors : sum local = 0.0034129769, global = 1.4526246e-05, cumulative = 0.0043694367
DILUPBiCGStab:  Solving for epsilon, Initial residual = 0.13454307, Final residual = 3.0659965e-09, No Iterations 7
DILUPBiCGStab:  Solving for k, Initial residual = 0.34867455, Final residual = 8.3559272e-09, No Iterations 9
ExecutionTime = 0.490405 s  ClockTime = 1 s

volFieldValue cellMin write:
    min() of p = -113.00573 at location (0.00026437515 -0.00018046651 0) in cell 193 on processor 0
    min() of epsilon = 11.440906 at location (0.2261711 -0.010780941 2.2572836e-20) in cell 481 on processor 1
    min() of k = 0.092534305 at location (0.27292673 0.018295218 0) in cell 1796 on processor 1

volFieldValue cellMax write:
    max() of p = 53.78769 at location (0.00079461383 -0.024835925 2.2516643e-20) in cell 1379 on processor 0
    max() of epsilon = 32109.864 at location (0.00026437515 -0.00018046651 0) in cell 193 on processor 0
    max() of k = 12.526026 at location (0.0007949221 0.00016098307 0) in cell 192 on processor 0

volFieldValue cellMinMag write:
    minMag() of U = 0.0076215085 at location (0.1035136 0.024869649 -1.8035353e-20) in cell 5824 on processor 1

volFieldValue cellMaxMag write:
    maxMag() of U = 14.470704 at location (-0.006808015 0.01409185 0) in cell 479 on processor 0

surfaceFieldValue flowRateOutlet write:
    sum("outlet") of phi = 0.00025400021

Time = 3s

DILUPBiCGStab:  Solving for Ux, Initial residual = 0.089301505, Final residual = 4.2215163e-09, No Iterations 9
DILUPBiCGStab:  Solving for Uy, Initial residual = 0.14436649, Final residual = 5.4133738e-09, No Iterations 9
GAMG:  Solving for p, Initial residual = 0.18086906, Final residual = 0.0016728609, No Iterations 26
GAMG:  Solving for p, Initial residual = 0.030186881, Final residual = 0.00028125543, No Iterations 32
GAMG:  Solving for p, Initial residual = 0.020041658, Final residual = 0.00018775301, No Iterations 9
time step continuity errors : sum local = 0.022723212, global = 0.00083125769, cumulative = 0.0052006944
DILUPBiCGStab:  Solving for epsilon, Initial residual = 0.089274211, Final residual = 3.8700381e-09, No Iterations 8
DILUPBiCGStab:  Solving for k, Initial residual = 0.18100923, Final residual = 4.2781768e-10, No Iterations 10
ExecutionTime = 0.545447 s  ClockTime = 1 s

volFieldValue cellMin write:
    min() of p = -117.75312 at location (0.00026437515 -0.00018046651 0) in cell 193 on processor 0
    min() of epsilon = 0.44886459 at location (-0.001203594 0.00122309 -4.3522825e-20) in cell 194 on processor 0
    min() of k = 0.032363581 at location (0.00026417399 -0.024835675 2.1917467e-20) in cell 1321 on processor 0

volFieldValue cellMax write:
    max() of p = 23.82358 at location (0.00079461383 -0.024835925 2.2516643e-20) in cell 1379 on processor 0
    max() of epsilon = 42926.429 at location (0.00026437515 -0.00018046651 0) in cell 193 on processor 0
    max() of k = 8.7747581 at location (0.0013293858 -0.00018196726 0) in cell 239 on processor 0

volFieldValue cellMinMag write:
    minMag() of U = 0.011676338 at location (0.18072201 0.024967574 0) in cell 3676 on processor 1

volFieldValue cellMaxMag write:
    maxMag() of U = 13.677034 at location (-0.0020451 0.0120018 0) in cell 647 on processor 0

surfaceFieldValue flowRateOutlet write:
    sum("outlet") of phi = 0.00025401207

Time = 4s

DILUPBiCGStab:  Solving for Ux, Initial residual = 0.063154141, Final residual = 7.3900003e-09, No Iterations 8
DILUPBiCGStab:  Solving for Uy, Initial residual = 0.11264703, Final residual = 2.7805546e-09, No Iterations 9
GAMG:  Solving for p, Initial residual = 0.13207206, Final residual = 0.0011952003, No Iterations 11
GAMG:  Solving for p, Initial residual = 0.013438043, Final residual = 0.0001313095, No Iterations 19
GAMG:  Solving for p, Initial residual = 0.0087125907, Final residual = 8.4600749e-05, No Iterations 10
time step continuity errors : sum local = 0.012691019, global = 7.6676529e-05, cumulative = 0.0052773709
DILUPBiCGStab:  Solving for epsilon, Initial residual = 0.15424811, Final residual = 6.1598688e-09, No Iterations 8
DILUPBiCGStab:  Solving for k, Initial residual = 0.13550544, Final residual = 6.4342082e-09, No Iterations 8
ExecutionTime = 0.585254 s  ClockTime = 1 s

volFieldValue cellMin write:
    min() of p = -89.621509 at location (0.00026437515 -0.00018046651 0) in cell 193 on processor 0
    min() of epsilon = 3.8865047 at location (0.00079461383 -0.024835925 2.2516643e-20) in cell 1379 on processor 0
    min() of k = 0.030740857 at location (0.00026417399 -0.023707025 -1.4862617e-20) in cell 1263 on processor 0

volFieldValue cellMax write:
    max() of p = 20.008604 at location (0.026491217 -0.02484765 0) in cell 3689 on processor 0
    max() of epsilon = 17582.453 at location (0.00026437515 -0.00018046651 0) in cell 193 on processor 0
    max() of k = 6.6049555 at location (0.00079471281 -0.0019982309 0) in cell 327 on processor 0

volFieldValue cellMinMag write:
    minMag() of U = 0.034967466 at location (0.011079827 -0.024840625 3.8369352e-20) in cell 2378 on processor 0

volFieldValue cellMaxMag write:
    maxMag() of U = 15.153785 at location (0.00026434478 -0.00056220337 0) in cell 216 on processor 0

surfaceFieldValue flowRateOutlet write:
    sum("outlet") of phi = 0.00025400111

Time = 5s

DILUPBiCGStab:  Solving for Ux, Initial residual = 0.056806457, Final residual = 9.2024014e-09, No Iterations 8
DILUPBiCGStab:  Solving for Uy, Initial residual = 0.08061801, Final residual = 3.5807863e-09, No Iterations 9
GAMG:  Solving for p, Initial residual = 0.096807729, Final residual = 0.00089775744, No Iterations 8
GAMG:  Solving for p, Initial residual = 0.011567853, Final residual = 0.00010239432, No Iterations 10
GAMG:  Solving for p, Initial residual = 0.006188838, Final residual = 6.026437e-05, No Iterations 6
time step continuity errors : sum local = 0.0074504538, global = -0.00015627119, cumulative = 0.0051210997
DILUPBiCGStab:  Solving for epsilon, Initial residual = 0.091802893, Final residual = 5.0493496e-09, No Iterations 8
DILUPBiCGStab:  Solving for k, Initial residual = 0.096841545, Final residual = 5.0619847e-09, No Iterations 8
ExecutionTime = 0.620108 s  ClockTime = 1 s

volFieldValue cellMin write:
    min() of p = -67.392053 at location (0.00026437515 -0.00018046651 0) in cell 193 on processor 0
    min() of epsilon = 4.7830228 at location (0.00079461383 -0.024835925 2.2516643e-20) in cell 1379 on processor 0
    min() of k = 0.040337036 at location (0.00026417399 -0.023707025 -1.4862617e-20) in cell 1263 on processor 0

volFieldValue cellMax write:
    max() of p = 20.042388 at location (0.03022046 -0.024849375 1.0048497e-20) in cell 3974 on processor 0
    max() of epsilon = 13093.253 at location (0.00079481728 -0.00018121401 0) in cell 215 on processor 0
    max() of k = 5.898981 at location (0.0018680287 -0.0014770759 0) in cell 358 on processor 0

volFieldValue cellMinMag write:
    minMag() of U = 0.051567375 at location (0.0018679848 -0.0026034133 -2.6381045e-20) in cell 430 on processor 0

volFieldValue cellMaxMag write:
    maxMag() of U = 12.872868 at location (0.0013291357 0.012049023 -2.6566921e-20) in cell 856 on processor 0

surfaceFieldValue flowRateOutlet write:
    sum("outlet") of phi = 0.00025399773

Time = 6s

DILUPBiCGStab:  Solving for Ux, Initial residual = 0.052094631, Final residual = 3.7043766e-09, No Iterations 9
DILUPBiCGStab:  Solving for Uy, Initial residual = 0.06824242, Final residual = 6.4968829e-09, No Iterations 9
GAMG:  Solving for p, Initial residual = 0.080189966, Final residual = 0.00078337851, No Iterations 7
GAMG:  Solving for p, Initial residual = 0.0077587335, Final residual = 7.052654e-05, No Iterations 9
GAMG:  Solving for p, Initial residual = 0.0047425094, Final residual = 4.0100618e-05, No Iterations 5
time step continuity errors : sum local = 0.0047061346, global = 0.00040599651, cumulative = 0.0055270962
DILUPBiCGStab:  Solving for epsilon, Initial residual = 0.074121091, Final residual = 4.8493046e-09, No Iterations 8
DILUPBiCGStab:  Solving for k, Initial residual = 0.081155998, Final residual = 4.5799335e-09, No Iterations 8
ExecutionTime = 0.653734 s  ClockTime = 1 s

volFieldValue cellMin write:
    min() of p = -54.827806 at location (0.00026437515 -0.00018046651 0) in cell 193 on processor 0
    min() of epsilon = 5.18724 at location (0.00079461383 -0.024835925 2.2516643e-20) in cell 1379 on processor 0
    min() of k = 0.051277091 at location (0.00026417399 -0.024835675 2.1917467e-20) in cell 1321 on processor 0

volFieldValue cellMax write:
    max() of p = 20.350773 at location (0.20702206 -0.024824573 0) in cell 324 on processor 1
    max() of epsilon = 8110.1596 at location (0.00079481728 -0.00018121401 0) in cell 215 on processor 0
    max() of k = 5.8283708 at location (0.0018680817 -0.00056882065 0) in cell 294 on processor 0

volFieldValue cellMinMag write:
    minMag() of U = 0.11462757 at location (0.018108665 -0.024843825 3.5550287e-20) in cell 3005 on processor 0

volFieldValue cellMaxMag write:
    maxMag() of U = 12.592128 at location (0.0040649501 0.012146248 -2.5793321e-20) in cell 1110 on processor 0

surfaceFieldValue flowRateOutlet write:
    sum("outlet") of phi = 0.00025400589

Time = 7s

DILUPBiCGStab:  Solving for Ux, Initial residual = 0.047650374, Final residual = 4.6530815e-09, No Iterations 8
DILUPBiCGStab:  Solving for Uy, Initial residual = 0.064363495, Final residual = 7.8779855e-09, No Iterations 8
GAMG:  Solving for p, Initial residual = 0.067813605, Final residual = 0.0005872877, No Iterations 8
GAMG:  Solving for p, Initial residual = 0.0066694128, Final residual = 5.1375702e-05, No Iterations 8
GAMG:  Solving for p, Initial residual = 0.0037302542, Final residual = 2.4893948e-05, No Iterations 5
time step continuity errors : sum local = 0.0028328837, global = -0.00035825138, cumulative = 0.0051688448
DILUPBiCGStab:  Solving for epsilon, Initial residual = 0.07754702, Final residual = 4.2536305e-09, No Iterations 8
DILUPBiCGStab:  Solving for k, Initial residual = 0.074720205, Final residual = 6.7637213e-09, No Iterations 8
ExecutionTime = 0.686716 s  ClockTime = 1 s

volFieldValue cellMin write:
    min() of p = -44.09841 at location (0.00026434478 -0.00056220337 0) in cell 216 on processor 0
    min() of epsilon = 5.4662262 at location (0.00079461383 -0.024835925 2.2516643e-20) in cell 1379 on processor 0
    min() of k = 0.058093637 at location (0.00026417399 -0.024835675 2.1917467e-20) in cell 1321 on processor 0

volFieldValue cellMax write:
    max() of p = 26.901146 at location (-0.000395709 0.0001594205 0) in cell 153 on processor 0
    max() of epsilon = 6252.6399 at location (0.0002644794 0.00015994031 0) in cell 172 on processor 0
    max() of k = 5.2044727 at location (0.0024109937 -0.00057106065 0) in cell 324 on processor 0

volFieldValue cellMinMag write:
    minMag() of U = 0.13021331 at location (0.022903563 -0.024846025 0) in cell 3404 on processor 0

volFieldValue cellMaxMag write:
    maxMag() of U = 12.420793 at location (0.0063311699 0.012226772 3.3095379e-20) in cell 1332 on processor 0

surfaceFieldValue flowRateOutlet write:
    sum("outlet") of phi = 0.0002539948

Time = 8s

DILUPBiCGStab:  Solving for Ux, Initial residual = 0.044005914, Final residual = 9.3315548e-09, No Iterations 8
DILUPBiCGStab:  Solving for Uy, Initial residual = 0.062781342, Final residual = 4.2281073e-09, No Iterations 9
GAMG:  Solving for p, Initial residual = 0.061997402, Final residual = 0.00057776799, No Iterations 8
GAMG:  Solving for p, Initial residual = 0.0057531265, Final residual = 4.4376102e-05, No Iterations 9
GAMG:  Solving for p, Initial residual = 0.0031526211, Final residual = 2.4327569e-05, No Iterations 5
time step continuity errors : sum local = 0.0026734904, global = -0.00024016832, cumulative = 0.0049286765
DILUPBiCGStab:  Solving for epsilon, Initial residual = 0.074725262, Final residual = 9.3435095e-09, No Iterations 8
DILUPBiCGStab:  Solving for k, Initial residual = 0.071366852, Final residual = 8.3415384e-10, No Iterations 9
ExecutionTime = 0.719676 s  ClockTime = 1 s

volFieldValue cellMin write:
    min() of p = -35.748441 at location (0.00026434478 -0.00056220337 0) in cell 216 on processor 0
    min() of epsilon = 6.0799679 at location (0.00079461383 -0.024835925 2.2516643e-20) in cell 1379 on processor 0
    min() of k = 0.065909539 at location (0.00026417399 -0.024835675 2.1917467e-20) in cell 1321 on processor 0

volFieldValue cellMax write:
    max() of p = 33.533901 at location (-0.000395709 0.0001594205 0) in cell 153 on processor 0
    max() of epsilon = 5125.5317 at location (0.00079489543 0.00049434728 3.5880052e-20) in cell 213 on processor 0
    max() of k = 4.5546386 at location (0.0029581573 -0.00018426227 0) in cell 323 on processor 0

volFieldValue cellMinMag write:
    minMag() of U = 0.15124019 at location (0.027225561 -0.024847975 0) in cell 3746 on processor 0

volFieldValue cellMaxMag write:
    maxMag() of U = 12.310142 at location (0.0080775001 0.012288847 3.2516162e-20) in cell 1503 on processor 0

surfaceFieldValue flowRateOutlet write:
    sum("outlet") of phi = 0.00025399651

Time = 9s

DILUPBiCGStab:  Solving for Ux, Initial residual = 0.041527631, Final residual = 3.1031774e-09, No Iterations 8
DILUPBiCGStab:  Solving for Uy, Initial residual = 0.061638469, Final residual = 1.7232451e-09, No Iterations 9
GAMG:  Solving for p, Initial residual = 0.058640373, Final residual = 0.00043615158, No Iterations 9
GAMG:  Solving for p, Initial residual = 0.0054358679, Final residual = 5.3976945e-05, No Iterations 8
GAMG:  Solving for p, Initial residual = 0.0029195699, Final residual = 2.4669263e-05, No Iterations 5
time step continuity errors : sum local = 0.0026755284, global = -0.0002403673, cumulative = 0.0046883092
DILUPBiCGStab:  Solving for epsilon, Initial residual = 0.071954443, Final residual = 6.0183318e-09, No Iterations 8
DILUPBiCGStab:  Solving for k, Initial residual = 0.068715226, Final residual = 4.4357063e-09, No Iterations 8
ExecutionTime = 0.7526 s  ClockTime = 1 s

volFieldValue cellMin write:
    min() of p = -27.44327 at location (0.00026434478 -0.00056220337 0) in cell 216 on processor 0
    min() of epsilon = 6.3498554 at location (0.248461 -0.014355769 0) in cell 162 on processor 1
    min() of k = 0.07039336 at location (0.00026417399 -0.024835675 2.1917467e-20) in cell 1321 on processor 0

volFieldValue cellMax write:
    max() of p = 38.814712 at location (-0.000395709 0.0001594205 0) in cell 153 on processor 0
    max() of epsilon = 6530.875 at location (0.0007949221 0.00016098307 0) in cell 192 on processor 0
    max() of k = 5.7519002 at location (0.00079481728 -0.00018121401 0) in cell 215 on processor 0

volFieldValue cellMinMag write:
    minMag() of U = 0.14979127 at location (0.030983809 -0.024849725 -3.1438468e-20) in cell 4031 on processor 0

volFieldValue cellMaxMag write:
    maxMag() of U = 12.256045 at location (0.0098648897 0.010677308 3.8341676e-20) in cell 1608 on processor 0

surfaceFieldValue flowRateOutlet write:
    sum("outlet") of phi = 0.00025399651

Time = 10s

DILUPBiCGStab:  Solving for Ux, Initial residual = 0.03909628, Final residual = 7.9016349e-09, No Iterations 8
DILUPBiCGStab:  Solving for Uy, Initial residual = 0.057541638, Final residual = 9.0755116e-09, No Iterations 8
GAMG:  Solving for p, Initial residual = 0.05605116, Final residual = 0.00042050956, No Iterations 9
GAMG:  Solving for p, Initial residual = 0.0038848719, Final residual = 3.848861e-05, No Iterations 10
GAMG:  Solving for p, Initial residual = 0.0019700425, Final residual = 1.549887e-05, No Iterations 6
time step continuity errors : sum local = 0.0016769257, global = 5.0697781e-05, cumulative = 0.004739007
DILUPBiCGStab:  Solving for epsilon, Initial residual = 0.06835052, Final residual = 6.270276e-09, No Iterations 8
DILUPBiCGStab:  Solving for k, Initial residual = 0.066173166, Final residual = 6.6065372e-09, No Iterations 8
ExecutionTime = 0.786046 s  ClockTime = 1 s

volFieldValue cellMin write:
    min() of p = -20.040983 at location (0.00026434478 -0.00056220337 0) in cell 216 on processor 0
    min() of epsilon = 5.9955348 at location (0.248461 -0.014355769 0) in cell 162 on processor 1
    min() of k = 0.071982193 at location (0.00026417399 -0.024835675 2.1917467e-20) in cell 1321 on processor 0

volFieldValue cellMax write:
    max() of p = 41.577086 at location (-0.000395709 0.0001594205 0) in cell 153 on processor 0
    max() of epsilon = 6026.628 at location (0.00079489543 0.00049434728 3.5880052e-20) in cell 213 on processor 0
    max() of k = 4.6785139 at location (0.0007949221 0.00016098307 0) in cell 192 on processor 0

volFieldValue cellMinMag write:
    minMag() of U = 0.1434895 at location (0.034890508 -0.024851475 3.0395429e-20) in cell 4316 on processor 0

volFieldValue cellMaxMag write:
    maxMag() of U = 12.221427 at location (0.011694287 0.010749638 -1.8058811e-20) in cell 1782 on processor 0

surfaceFieldValue flowRateOutlet write:
    sum("outlet") of phi = 0.00025400074

Time = 11s

DILUPBiCGStab:  Solving for Ux, Initial residual = 0.036701543, Final residual = 6.5640898e-09, No Iterations 8
DILUPBiCGStab:  Solving for Uy, Initial residual = 0.053895154, Final residual = 5.5190351e-09, No Iterations 8
GAMG:  Solving for p, Initial residual = 0.055780746, Final residual = 0.00039593412, No Iterations 9
GAMG:  Solving for p, Initial residual = 0.0034968378, Final residual = 3.4720883e-05, No Iterations 10
GAMG:  Solving for p, Initial residual = 0.0016115564, Final residual = 1.2126271e-05, No Iterations 6
time step continuity errors : sum local = 0.0013052619, global = 7.6108713e-05, cumulative = 0.0048151157
DILUPBiCGStab:  Solving for epsilon, Initial residual = 0.063607672, Final residual = 3.4113438e-09, No Iterations 8
DILUPBiCGStab:  Solving for k, Initial residual = 0.063110138, Final residual = 7.4077999e-09, No Iterations 8
ExecutionTime = 0.821208 s  ClockTime = 1 s

volFieldValue cellMin write:
    min() of p = -13.535164 at location (0.00026434478 -0.00056220337 0) in cell 216 on processor 0
    min() of epsilon = 5.7308855 at location (0.24846101 -0.015131791 0) in cell 145 on processor 1
    min() of k = 0.072051186 at location (0.00026417399 -0.024835675 2.1917467e-20) in cell 1321 on processor 0

volFieldValue cellMax write:
    max() of p = 42.336111 at location (-0.000395709 0.0001594205 0) in cell 153 on processor 0
    max() of epsilon = 5375.7584 at location (0.00079489543 0.00049434728 3.5880052e-20) in cell 213 on processor 0
    max() of k = 4.3905656 at location (0.0018681662 0.00086163407 0) in cell 290 on processor 0

volFieldValue cellMinMag write:
    minMag() of U = 0.083052458 at location (0.010470031 -0.0068880572 5.4827169e-20) in cell 1412 on processor 0

volFieldValue cellMaxMag write:
    maxMag() of U = 12.195891 at location (0.012313588 0.010774148 0) in cell 1840 on processor 0

surfaceFieldValue flowRateOutlet write:
    sum("outlet") of phi = 0.0002540011

Time = 12s

DILUPBiCGStab:  Solving for Ux, Initial residual = 0.034266163, Final residual = 8.0921799e-09, No Iterations 8
DILUPBiCGStab:  Solving for Uy, Initial residual = 0.051177872, Final residual = 6.0244962e-09, No Iterations 8
GAMG:  Solving for p, Initial residual = 0.056205526, Final residual = 0.00040499705, No Iterations 9
GAMG:  Solving for p, Initial residual = 0.0034969874, Final residual = 3.4847979e-05, No Iterations 10
GAMG:  Solving for p, Initial residual = 0.0017457984, Final residual = 1.3201458e-05, No Iterations 7
time step continuity errors : sum local = 0.0014035768, global = 9.5958125e-05, cumulative = 0.0049110738
DILUPBiCGStab:  Solving for epsilon, Initial residual = 0.06032755, Final residual = 2.92394e-09, No Iterations 8
DILUPBiCGStab:  Solving for k, Initial residual = 0.060573259, Final residual = 9.9599453e-09, No Iterations 8
ExecutionTime = 0.854773 s  ClockTime = 1 s

volFieldValue cellMin write:
    min() of p = -9.9980928 at location (0.0086688656 -0.0020839985 0) in cell 916 on processor 0
    min() of epsilon = 5.5353009 at location (0.24846101 -0.015131791 0) in cell 145 on processor 1
    min() of k = 0.072493015 at location (0.00026417399 -0.024835675 2.1917467e-20) in cell 1321 on processor 0

volFieldValue cellMax write:
    max() of p = 41.108414 at location (-0.000395709 0.0001594205 0) in cell 153 on processor 0
    max() of epsilon = 5096.9745 at location (0.0013294396 0.00085646055 0) in cell 262 on processor 0
    max() of k = 4.473605 at location (0.0024110546 0.0012550179 -6.0738006e-20) in cell 351 on processor 0

volFieldValue cellMinMag write:
    minMag() of U = 0.11557508 at location (0.011694331 -0.0069067747 0) in cell 1528 on processor 0

volFieldValue cellMaxMag write:
    maxMag() of U = 12.179261 at location (0.012937734 0.010798822 0) in cell 1898 on processor 0

surfaceFieldValue flowRateOutlet write:
    sum("outlet") of phi = 0.00025400139

Time = 13s

DILUPBiCGStab:  Solving for Ux, Initial residual = 0.032249633, Final residual = 3.3535146e-09, No Iterations 8
DILUPBiCGStab:  Solving for Uy, Initial residual = 0.049459231, Final residual = 6.3841272e-09, No Iterations 8
GAMG:  Solving for p, Initial residual = 0.055916124, Final residual = 0.0004151075, No Iterations 9
GAMG:  Solving for p, Initial residual = 0.0030734533, Final residual = 2.5679037e-05, No Iterations 11
GAMG:  Solving for p, Initial residual = 0.0013691213, Final residual = 1.1644505e-05, No Iterations 6
time step continuity errors : sum local = 0.0012209402, global = -9.9187537e-05, cumulative = 0.0048118863
DILUPBiCGStab:  Solving for epsilon, Initial residual = 0.055929684, Final residual = 3.2696551e-09, No Iterations 8
DILUPBiCGStab:  Solving for k, Initial residual = 0.058049519, Final residual = 4.1931906e-09, No Iterations 8
ExecutionTime = 0.889534 s  ClockTime = 1 s

volFieldValue cellMin write:
    min() of p = -11.622501 at location (0.010470124 -0.0027117409 -3.4031776e-20) in cell 1129 on processor 0
    min() of epsilon = 5.4174507 at location (0.24846101 -0.015131791 0) in cell 145 on processor 1
    min() of k = 0.070064906 at location (0.00026417399 -0.024835675 2.1917467e-20) in cell 1321 on processor 0

volFieldValue cellMax write:
    max() of p = 38.635524 at location (-0.000395709 0.0001594205 0) in cell 153 on processor 0
    max() of epsilon = 4785.0345 at location (0.0013294396 0.00085646055 0) in cell 262 on processor 0
    max() of k = 4.4525979 at location (0.0024110546 0.0012550179 -6.0738006e-20) in cell 351 on processor 0

volFieldValue cellMinMag write:
    minMag() of U = 0.12610079 at location (0.046669346 -0.02485685 0) in cell 5114 on processor 0

volFieldValue cellMaxMag write:
    maxMag() of U = 12.170139 at location (0.013566734 0.010823672 8.8546959e-21) in cell 1956 on processor 0

surfaceFieldValue flowRateOutlet write:
    sum("outlet") of phi = 0.00025399856

Time = 14s

DILUPBiCGStab:  Solving for Ux, Initial residual = 0.030296954, Final residual = 3.0721454e-09, No Iterations 8
DILUPBiCGStab:  Solving for Uy, Initial residual = 0.048296614, Final residual = 7.4920627e-09, No Iterations 8
GAMG:  Solving for p, Initial residual = 0.055046232, Final residual = 0.0004335646, No Iterations 9
GAMG:  Solving for p, Initial residual = 0.0031699938, Final residual = 2.6961124e-05, No Iterations 11
GAMG:  Solving for p, Initial residual = 0.0015722565, Final residual = 1.459462e-05, No Iterations 6
time step continuity errors : sum local = 0.0015029425, global = -0.00013029563, cumulative = 0.0046815907
DILUPBiCGStab:  Solving for epsilon, Initial residual = 0.052759961, Final residual = 4.8475596e-09, No Iterations 8
DILUPBiCGStab:  Solving for k, Initial residual = 0.055871076, Final residual = 8.9607694e-09, No Iterations 8
ExecutionTime = 0.922719 s  ClockTime = 1 s

volFieldValue cellMin write:
    min() of p = -13.226691 at location (0.012313704 -0.0034104208 0) in cell 1358 on processor 0
    min() of epsilon = 5.3645802 at location (0.25215994 -0.014851934 -2.4942872e-20) in cell 128 on processor 1
    min() of k = 0.066883579 at location (0.00026417399 -0.024835675 2.1917467e-20) in cell 1321 on processor 0

volFieldValue cellMax write:
    max() of p = 35.338901 at location (-0.000395709 0.0001594205 0) in cell 153 on processor 0
    max() of epsilon = 4567.3814 at location (0.0013294396 0.00085646055 0) in cell 262 on processor 0
    max() of k = 4.2736069 at location (0.0024110546 0.0012550179 -6.0738006e-20) in cell 351 on processor 0

volFieldValue cellMinMag write:
    minMag() of U = 0.11697092 at location (0.051195336 -0.024858925 3.5211097e-20) in cell 5397 on processor 0

volFieldValue cellMaxMag write:
    maxMag() of U = 12.180283 at location (0.014200587 0.010848747 1.910088e-20) in cell 2014 on processor 0

surfaceFieldValue flowRateOutlet write:
    sum("outlet") of phi = 0.00025399811

Time = 15s

DILUPBiCGStab:  Solving for Ux, Initial residual = 0.028389976, Final residual = 9.696632e-09, No Iterations 8
DILUPBiCGStab:  Solving for Uy, Initial residual = 0.047342343, Final residual = 6.6564644e-09, No Iterations 8
GAMG:  Solving for p, Initial residual = 0.052812548, Final residual = 0.00045031226, No Iterations 9
GAMG:  Solving for p, Initial residual = 0.0028436179, Final residual = 2.3560851e-05, No Iterations 11
GAMG:  Solving for p, Initial residual = 0.0013695787, Final residual = 1.1905308e-05, No Iterations 6
time step continuity errors : sum local = 0.0012146107, global = -0.00010864311, cumulative = 0.0045729476
DILUPBiCGStab:  Solving for epsilon, Initial residual = 0.051442209, Final residual = 4.6333479e-09, No Iterations 8
DILUPBiCGStab:  Solving for k, Initial residual = 0.054020437, Final residual = 8.4619069e-09, No Iterations 8
ExecutionTime = 0.956326 s  ClockTime = 1 s

volFieldValue cellMin write:
    min() of p = -14.84687 at location (0.013566856 -0.0034279158 2.9628521e-20) in cell 1474 on processor 0
    min() of epsilon = 5.3727473 at location (0.25215994 -0.014851934 -2.4942872e-20) in cell 128 on processor 1
    min() of k = 0.063162904 at location (0.00026417399 -0.024835675 2.1917467e-20) in cell 1321 on processor 0

volFieldValue cellMax write:
    max() of p = 31.964784 at location (-0.000395709 0.0001594205 0) in cell 153 on processor 0
    max() of epsilon = 4367.6548 at location (0.0013294396 0.00085646055 0) in cell 262 on processor 0
    max() of k = 4.0971282 at location (0.0040652243 0.0016978009 1.8855602e-20) in cell 498 on processor 0

volFieldValue cellMinMag write:
    minMag() of U = 0.12537985 at location (0.055899983 -0.024861075 0) in cell 5642 on processor 0

volFieldValue cellMaxMag write:
    maxMag() of U = 12.202409 at location (0.014839382 0.010874022 -1.8985235e-20) in cell 2072 on processor 0

surfaceFieldValue flowRateOutlet write:
    sum("outlet") of phi = 0.00025399842

Time = 16s

DILUPBiCGStab:  Solving for Ux, Initial residual = 0.026496047, Final residual = 1.389052e-09, No Iterations 9
DILUPBiCGStab:  Solving for Uy, Initial residual = 0.046264869, Final residual = 2.610352e-09, No Iterations 9
GAMG:  Solving for p, Initial residual = 0.051669097, Final residual = 0.00046863919, No Iterations 9
GAMG:  Solving for p, Initial residual = 0.0033044639, Final residual = 2.8905534e-05, No Iterations 10
GAMG:  Solving for p, Initial residual = 0.0017016468, Final residual = 1.3158689e-05, No Iterations 6
time step continuity errors : sum local = 0.0013169387, global = -0.00011212515, cumulative = 0.0044608224
DILUPBiCGStab:  Solving for epsilon, Initial residual = 0.050121156, Final residual = 4.5468117e-09, No Iterations 8
DILUPBiCGStab:  Solving for k, Initial residual = 0.052332889, Final residual = 3.5574747e-09, No Iterations 8
ExecutionTime = 0.989849 s  ClockTime = 1 s

volFieldValue cellMin write:
    min() of p = -16.304394 at location (0.014839508 -0.0034456833 -9.2098729e-21) in cell 1590 on processor 0
    min() of epsilon = 5.4312263 at location (0.25999417 -0.013527926 -1.281128e-20) in cell 111 on processor 1
    min() of k = 0.058379344 at location (0.00026417399 -0.024835675 2.1917467e-20) in cell 1321 on processor 0

volFieldValue cellMax write:
    max() of p = 28.434463 at location (-0.000395709 0.0001594205 0) in cell 153 on processor 0
    max() of epsilon = 4220.0912 at location (0.0013294645 0.0004974708 0) in cell 237 on processor 0
    max() of k = 3.8882356 at location (0.0046252171 0.001707181 -1.8645924e-20) in cell 540 on processor 0

volFieldValue cellMinMag write:
    minMag() of U = 0.082091232 at location (0.017444611 -0.0081163494 1.0792586e-20) in cell 2107 on processor 0

volFieldValue cellMaxMag write:
    maxMag() of U = 12.22887 at location (0.014200587 0.010848747 1.910088e-20) in cell 2014 on processor 0

surfaceFieldValue flowRateOutlet write:
    sum("outlet") of phi = 0.00025399837

Time = 17s

DILUPBiCGStab:  Solving for Ux, Initial residual = 0.025049873, Final residual = 5.6156725e-09, No Iterations 8
DILUPBiCGStab:  Solving for Uy, Initial residual = 0.045917718, Final residual = 4.3060835e-09, No Iterations 9
GAMG:  Solving for p, Initial residual = 0.050684045, Final residual = 0.00045326818, No Iterations 9
GAMG:  Solving for p, Initial residual = 0.0032780389, Final residual = 2.6325703e-05, No Iterations 10
GAMG:  Solving for p, Initial residual = 0.001473062, Final residual = 1.2090151e-05, No Iterations 6
time step continuity errors : sum local = 0.0011401048, global = -0.00011630571, cumulative = 0.0043445167
DILUPBiCGStab:  Solving for epsilon, Initial residual = 0.048300478, Final residual = 4.2040776e-09, No Iterations 8
DILUPBiCGStab:  Solving for k, Initial residual = 0.050630113, Final residual = 3.9156032e-09, No Iterations 8
ExecutionTime = 1.023012 s  ClockTime = 1 s

volFieldValue cellMin write:
    min() of p = -17.717235 at location (0.01678581 -0.0034728633 1.9445792e-20) in cell 1764 on processor 0
    min() of epsilon = 5.5191072 at location (0.25999417 -0.013527926 -1.281128e-20) in cell 111 on processor 1
    min() of k = 0.056118373 at location (0.00026417399 -0.024835675 2.1917467e-20) in cell 1321 on processor 0

volFieldValue cellMax write:
    max() of p = 25.001624 at location (-0.000395709 0.0001594205 0) in cell 153 on processor 0
    max() of epsilon = 3736.0561 at location (0.0013294645 0.0004974708 0) in cell 237 on processor 0
    max() of k = 3.8512803 at location (0.028711706 -0.00067958306 2.5068038e-20) in cell 2460 on processor 0

volFieldValue cellMinMag write:
    minMag() of U = 0.041829182 at location (0.00026417399 -0.024835675 2.1917467e-20) in cell 1321 on processor 0

volFieldValue cellMaxMag write:
    maxMag() of U = 12.259513 at location (0.016785681 0.010950922 0) in cell 2246 on processor 0

surfaceFieldValue flowRateOutlet write:
    sum("outlet") of phi = 0.00025399831

Time = 18s

DILUPBiCGStab:  Solving for Ux, Initial residual = 0.023528585, Final residual = 9.1587894e-09, No Iterations 8
DILUPBiCGStab:  Solving for Uy, Initial residual = 0.045162519, Final residual = 9.4514073e-09, No Iterations 8
GAMG:  Solving for p, Initial residual = 0.049268905, Final residual = 0.00047727329, No Iterations 9
GAMG:  Solving for p, Initial residual = 0.003316027, Final residual = 2.9303441e-05, No Iterations 10
GAMG:  Solving for p, Initial residual = 0.0013838637, Final residual = 1.0674491e-05, No Iterations 6
time step continuity errors : sum local = 0.00095889758, global = -5.5499323e-05, cumulative = 0.0042890174
DILUPBiCGStab:  Solving for epsilon, Initial residual = 0.046044299, Final residual = 6.0616685e-09, No Iterations 8
DILUPBiCGStab:  Solving for k, Initial residual = 0.049029239, Final residual = 6.8183504e-09, No Iterations 8
ExecutionTime = 1.055814 s  ClockTime = 2 s

volFieldValue cellMin write:
    min() of p = -19.032096 at location (0.018108761 -0.0034913334 0) in cell 1880 on processor 0
    min() of epsilon = 5.6378928 at location (0.25999417 -0.013527926 -1.281128e-20) in cell 111 on processor 1
    min() of k = 0.052864289 at location (0.00026417399 -0.024835675 2.1917467e-20) in cell 1321 on processor 0

volFieldValue cellMax write:
    max() of p = 21.815324 at location (-0.000395709 0.0001594205 0) in cell 153 on processor 0
    max() of epsilon = 3584.2246 at location (0.0018681919 0.00050061856 5.8757026e-20) in cell 263 on processor 0
    max() of k = 3.913365 at location (0.030220721 -0.001186545 0) in cell 2630 on processor 0

volFieldValue cellMinMag write:
    minMag() of U = 0.012610955 at location (0.00026417399 -0.024835675 2.1917467e-20) in cell 1321 on processor 0

volFieldValue cellMaxMag write:
    maxMag() of U = 12.281189 at location (0.017444576 0.010976997 0) in cell 2304 on processor 0

surfaceFieldValue flowRateOutlet write:
    sum("outlet") of phi = 0.00025399919

Time = 19s

DILUPBiCGStab:  Solving for Ux, Initial residual = 0.022077376, Final residual = 1.0287095e-09, No Iterations 9
DILUPBiCGStab:  Solving for Uy, Initial residual = 0.044732124, Final residual = 2.8942678e-10, No Iterations 10
GAMG:  Solving for p, Initial residual = 0.048358241, Final residual = 0.00035813229, No Iterations 10
GAMG:  Solving for p, Initial residual = 0.0026856411, Final residual = 2.2970795e-05, No Iterations 10
GAMG:  Solving for p, Initial residual = 0.0009971539, Final residual = 9.3151387e-06, No Iterations 7
time step continuity errors : sum local = 0.0008034129, global = 8.1973641e-05, cumulative = 0.004370991
DILUPBiCGStab:  Solving for epsilon, Initial residual = 0.044044786, Final residual = 4.6575952e-09, No Iterations 8
DILUPBiCGStab:  Solving for k, Initial residual = 0.047485231, Final residual = 7.7079828e-09, No Iterations 8
ExecutionTime = 1.090264 s  ClockTime = 2 s

volFieldValue cellMin write:
    min() of p = -20.230353 at location (0.019452264 -0.0035100934 -1.8819953e-20) in cell 1996 on processor 0
    min() of epsilon = 5.7790056 at location (0.25999417 -0.013527926 -1.281128e-20) in cell 111 on processor 1
    min() of k = 0.046706544 at location (0.00026417399 -0.024835675 2.1917467e-20) in cell 1321 on processor 0

volFieldValue cellMax write:
    max() of p = 19.806402 at location (0.20702206 -0.024824573 0) in cell 324 on processor 1
    max() of epsilon = 3544.5797 at location (0.0018681919 0.00050061856 5.8757026e-20) in cell 263 on processor 0
    max() of k = 3.9764756 at location (0.03252859 -0.0017497642 0) in cell 2857 on processor 0

volFieldValue cellMinMag write:
    minMag() of U = 0.0067985682 at location (0.00026417399 -0.024835675 2.1917467e-20) in cell 1321 on processor 0

volFieldValue cellMaxMag write:
    maxMag() of U = 12.307457 at location (0.018777771 0.011029722 0) in cell 2419 on processor 0

surfaceFieldValue flowRateOutlet write:
    sum("outlet") of phi = 0.00025400119

Time = 20s

DILUPBiCGStab:  Solving for Ux, Initial residual = 0.020683835, Final residual = 1.8379108e-09, No Iterations 9
DILUPBiCGStab:  Solving for Uy, Initial residual = 0.04417327, Final residual = 7.7589594e-09, No Iterations 9
GAMG:  Solving for p, Initial residual = 0.047385922, Final residual = 0.00046872371, No Iterations 9
GAMG:  Solving for p, Initial residual = 0.0026731664, Final residual = 2.0406786e-05, No Iterations 11
GAMG:  Solving for p, Initial residual = 0.00097887908, Final residual = 6.9950175e-06, No Iterations 6
time step continuity errors : sum local = 0.00058978505, global = -4.2586806e-05, cumulative = 0.0043284042
DILUPBiCGStab:  Solving for epsilon, Initial residual = 0.041672464, Final residual = 5.5117422e-09, No Iterations 8
DILUPBiCGStab:  Solving for k, Initial residual = 0.045995237, Final residual = 8.9623578e-09, No Iterations 8
ExecutionTime = 1.124184 s  ClockTime = 2 s

volFieldValue cellMin write:
    min() of p = -21.370233 at location (0.021507117 -0.0035387834 0) in cell 2170 on processor 0
    min() of epsilon = 5.4059089 at location (0.00079461383 -0.024835925 2.2516643e-20) in cell 1379 on processor 0
    min() of k = 0.040917639 at location (0.00026417399 -0.024835675 2.1917467e-20) in cell 1321 on processor 0

volFieldValue cellMax write:
    max() of p = 19.741037 at location (0.20702206 -0.024824573 0) in cell 324 on processor 1
    max() of epsilon = 3446.2628 at location (0.0018681919 0.00050061856 5.8757026e-20) in cell 263 on processor 0
    max() of k = 4.0411501 at location (0.034097219 -0.0030092815 0) in cell 3083 on processor 0

volFieldValue cellMinMag write:
    minMag() of U = 0.027690514 at location (0.00026417399 -0.024835675 2.1917467e-20) in cell 1321 on processor 0

volFieldValue cellMaxMag write:
    maxMag() of U = 12.320481 at location (0.020131773 0.011083247 -1.8107991e-20) in cell 2533 on processor 0

surfaceFieldValue flowRateOutlet write:
    sum("outlet") of phi = 0.00025399938

Time = 21s

DILUPBiCGStab:  Solving for Ux, Initial residual = 0.019432448, Final residual = 7.7981076e-09, No Iterations 8
DILUPBiCGStab:  Solving for Uy, Initial residual = 0.04365898, Final residual = 7.4119212e-10, No Iterations 10
GAMG:  Solving for p, Initial residual = 0.046051367, Final residual = 0.00034717318, No Iterations 10
GAMG:  Solving for p, Initial residual = 0.0025549532, Final residual = 2.1805278e-05, No Iterations 10
GAMG:  Solving for p, Initial residual = 0.0008472189, Final residual = 6.4752842e-06, No Iterations 8
time step continuity errors : sum local = 0.00051635096, global = 4.5662713e-05, cumulative = 0.0043740669
DILUPBiCGStab:  Solving for epsilon, Initial residual = 0.039653895, Final residual = 6.9702991e-09, No Iterations 8
DILUPBiCGStab:  Solving for k, Initial residual = 0.044601531, Final residual = 1.3495143e-09, No Iterations 9
ExecutionTime = 1.160741 s  ClockTime = 2 s

volFieldValue cellMin write:
    min() of p = -22.422332 at location (0.022903669 -0.0035582835 1.8065573e-20) in cell 2284 on processor 0
    min() of epsilon = 5.0538483 at location (0.00079461383 -0.024835925 2.2516643e-20) in cell 1379 on processor 0
    min() of k = 0.037725158 at location (0.00026417399 -0.024835675 2.1917467e-20) in cell 1321 on processor 0

volFieldValue cellMax write:
    max() of p = 19.666475 at location (0.20702206 -0.024824573 0) in cell 324 on processor 1
    max() of epsilon = 3360.0194 at location (0.0024111046 0.00050379083 0) in cell 291 on processor 0
    max() of k = 4.1155316 at location (0.036496189 -0.0037480737 0) in cell 3310 on processor 0

volFieldValue cellMinMag write:
    minMag() of U = 0.03512033 at location (0.00026417399 -0.024835675 2.1917467e-20) in cell 1321 on processor 0

volFieldValue cellMaxMag write:
    maxMag() of U = 12.329717 at location (0.021506968 0.011137622 -8.1967612e-21) in cell 2647 on processor 0

surfaceFieldValue flowRateOutlet write:
    sum("outlet") of phi = 0.00025400066

Time = 22s

DILUPBiCGStab:  Solving for Ux, Initial residual = 0.018272112, Final residual = 3.7512292e-09, No Iterations 8
DILUPBiCGStab:  Solving for Uy, Initial residual = 0.042971088, Final residual = 8.7085379e-09, No Iterations 8
GAMG:  Solving for p, Initial residual = 0.044697869, Final residual = 0.00034733998, No Iterations 10
GAMG:  Solving for p, Initial residual = 0.0024814883, Final residual = 2.1901254e-05, No Iterations 10
GAMG:  Solving for p, Initial residual = 0.00078405367, Final residual = 5.3590741e-06, No Iterations 6
time step continuity errors : sum local = 0.00040528386, global = -2.9184993e-05, cumulative = 0.0043448819
DILUPBiCGStab:  Solving for epsilon, Initial residual = 0.037618549, Final residual = 8.1982858e-09, No Iterations 8
DILUPBiCGStab:  Solving for k, Initial residual = 0.043240459, Final residual = 1.4828675e-09, No Iterations 9
ExecutionTime = 1.195176 s  ClockTime = 2 s

volFieldValue cellMin write:
    min() of p = -23.383059 at location (0.024322093 -0.0043371807 -1.6323966e-20) in cell 2454 on processor 0
    min() of epsilon = 4.8729568 at location (0.00079461383 -0.024835925 2.2516643e-20) in cell 1379 on processor 0
    min() of k = 0.034739081 at location (0.00026417399 -0.024835675 2.1917467e-20) in cell 1321 on processor 0

volFieldValue cellMax write:
    max() of p = 19.704193 at location (0.20702204 0.025164502 -1.6001003e-20) in cell 2993 on processor 1
    max() of epsilon = 3298.124 at location (0.0018682189 0.00016309333 0) in cell 238 on processor 0
    max() of k = 4.2022311 at location (0.038126673 -0.0053858854 0) in cell 3536 on processor 0

volFieldValue cellMinMag write:
    minMag() of U = 0.041795434 at location (0.00079461383 -0.024835925 2.2516643e-20) in cell 1379 on processor 0

volFieldValue cellMaxMag write:
    maxMag() of U = 12.332655 at location (0.022903513 0.011192847 0) in cell 2761 on processor 0

surfaceFieldValue flowRateOutlet write:
    sum("outlet") of phi = 0.00025399958

Time = 23s

DILUPBiCGStab:  Solving for Ux, Initial residual = 0.017165665, Final residual = 3.455176e-09, No Iterations 8
DILUPBiCGStab:  Solving for Uy, Initial residual = 0.042106014, Final residual = 9.5542969e-09, No Iterations 8
GAMG:  Solving for p, Initial residual = 0.043846787, Final residual = 0.00033259476, No Iterations 10
GAMG:  Solving for p, Initial residual = 0.0025640611, Final residual = 2.0925814e-05, No Iterations 10
GAMG:  Solving for p, Initial residual = 0.0007668141, Final residual = 7.606296e-06, No Iterations 7
time step continuity errors : sum local = 0.00054891793, global = 5.1511065e-05, cumulative = 0.004396393
DILUPBiCGStab:  Solving for epsilon, Initial residual = 0.03586525, Final residual = 4.036315e-09, No Iterations 8
DILUPBiCGStab:  Solving for k, Initial residual = 0.041917251, Final residual = 5.0148933e-09, No Iterations 8
ExecutionTime = 1.230212 s  ClockTime = 2 s

volFieldValue cellMin write:
    min() of p = -24.261354 at location (0.025762594 -0.0043587357 0) in cell 2568 on processor 0
    min() of epsilon = 4.511948 at location (0.00079461383 -0.024835925 2.2516643e-20) in cell 1379 on processor 0
    min() of k = 0.030696907 at location (0.00026417399 -0.024835675 2.1917467e-20) in cell 1321 on processor 0

volFieldValue cellMax write:
    max() of p = 19.761906 at location (0.20702204 0.025164502 -1.6001003e-20) in cell 2993 on processor 1
    max() of epsilon = 3303.1159 at location (0.0018682189 0.00016309333 0) in cell 238 on processor 0
    max() of k = 4.3056565 at location (0.039782693 -0.0063312649 0) in cell 3706 on processor 0

volFieldValue cellMinMag write:
    minMag() of U = 0.014327543 at location (0.00079461383 -0.024835925 2.2516643e-20) in cell 1379 on processor 0

volFieldValue cellMaxMag write:
    maxMag() of U = 12.329024 at location (0.024321965 0.011248922 0) in cell 2875 on processor 0

surfaceFieldValue flowRateOutlet write:
    sum("outlet") of phi = 0.00025400075

Time = 24s

DILUPBiCGStab:  Solving for Ux, Initial residual = 0.016124525, Final residual = 4.8611828e-09, No Iterations 8
DILUPBiCGStab:  Solving for Uy, Initial residual = 0.041473029, Final residual = 3.1713228e-09, No Iterations 9
GAMG:  Solving for p, Initial residual = 0.04331135, Final residual = 0.00032721953, No Iterations 10
GAMG:  Solving for p, Initial residual = 0.0025205781, Final residual = 2.0911581e-05, No Iterations 10
GAMG:  Solving for p, Initial residual = 0.00069119009, Final residual = 5.9236569e-06, No Iterations 6
time step continuity errors : sum local = 0.00040780525, global = -4.116336e-05, cumulative = 0.0043552296
DILUPBiCGStab:  Solving for epsilon, Initial residual = 0.033826745, Final residual = 6.0981721e-09, No Iterations 8
DILUPBiCGStab:  Solving for k, Initial residual = 0.040582212, Final residual = 4.5843805e-09, No Iterations 8
ExecutionTime = 1.265374 s  ClockTime = 2 s

volFieldValue cellMin write:
    min() of p = -25.048219 at location (0.027225646 -0.0043806257 1.5829502e-20) in cell 2682 on processor 0
    min() of epsilon = 4.051752 at location (0.00079461383 -0.024835925 2.2516643e-20) in cell 1379 on processor 0
    min() of k = 0.026590947 at location (0.00026417399 -0.024835675 2.1917467e-20) in cell 1321 on processor 0

volFieldValue cellMax write:
    max() of p = 19.804515 at location (0.20702204 0.025164502 -1.6001003e-20) in cell 2993 on processor 1
    max() of epsilon = 3274.7127 at location (0.0024111314 0.00016416083 0) in cell 264 on processor 0
    max() of k = 4.414943 at location (0.041464513 -0.0073619719 0) in cell 3876 on processor 0

volFieldValue cellMinMag write:
    minMag() of U = 0.0044294155 at location (0.00079461383 -0.024835925 2.2516643e-20) in cell 1379 on processor 0

volFieldValue cellMaxMag write:
    maxMag() of U = 12.320927 at location (0.025762464 0.011305872 3.3071282e-20) in cell 2989 on processor 0

surfaceFieldValue flowRateOutlet write:
    sum("outlet") of phi = 0.0002539994

Time = 25s

DILUPBiCGStab:  Solving for Ux, Initial residual = 0.015133221, Final residual = 9.9890351e-09, No Iterations 8
DILUPBiCGStab:  Solving for Uy, Initial residual = 0.040521225, Final residual = 3.8976076e-09, No Iterations 9
GAMG:  Solving for p, Initial residual = 0.042654048, Final residual = 0.00032857185, No Iterations 10
GAMG:  Solving for p, Initial residual = 0.0025972225, Final residual = 2.5153156e-05, No Iterations 9
GAMG:  Solving for p, Initial residual = 0.00074592719, Final residual = 5.9673659e-06, No Iterations 8
time step continuity errors : sum local = 0.00039205543, global = 2.9878495e-05, cumulative = 0.0043851081
DILUPBiCGStab:  Solving for epsilon, Initial residual = 0.031541667, Final residual = 6.5065722e-09, No Iterations 8
DILUPBiCGStab:  Solving for k, Initial residual = 0.039251513, Final residual = 5.8027638e-09, No Iterations 8
ExecutionTime = 1.299863 s  ClockTime = 2 s

volFieldValue cellMin write:
    min() of p = -25.748621 at location (0.028711497 -0.0044028557 0) in cell 2796 on processor 0
    min() of epsilon = 3.6796211 at location (0.00079461383 -0.024835925 2.2516643e-20) in cell 1379 on processor 0
    min() of k = 0.023568065 at location (0.00026417399 -0.024835675 2.1917467e-20) in cell 1321 on processor 0

volFieldValue cellMax write:
    max() of p = 19.82771 at location (0.20702204 0.025164502 -1.6001003e-20) in cell 2993 on processor 1
    max() of epsilon = 3295.0312 at location (0.0024111314 0.00016416083 0) in cell 264 on processor 0
    max() of k = 4.5248332 at location (0.043172711 -0.0073880919 -2.9497802e-20) in cell 3990 on processor 0

volFieldValue cellMinMag write:
    minMag() of U = 0.034947992 at location (0.00079461383 -0.024835925 2.2516643e-20) in cell 1379 on processor 0

volFieldValue cellMaxMag write:
    maxMag() of U = 12.310999 at location (0.027225508 0.011363746 0) in cell 3103 on processor 0

surfaceFieldValue flowRateOutlet write:
    sum("outlet") of phi = 0.00025400043

Time = 26s

DILUPBiCGStab:  Solving for Ux, Initial residual = 0.014155907, Final residual = 2.35894e-09, No Iterations 9
DILUPBiCGStab:  Solving for Uy, Initial residual = 0.039595806, Final residual = 4.7400795e-09, No Iterations 9
GAMG:  Solving for p, Initial residual = 0.04250332, Final residual = 0.00033554192, No Iterations 10
GAMG:  Solving for p, Initial residual = 0.0026546525, Final residual = 2.3386966e-05, No Iterations 10
GAMG:  Solving for p, Initial residual = 0.00076147604, Final residual = 7.1378225e-06, No Iterations 6
time step continuity errors : sum local = 0.00044864363, global = -3.8782617e-05, cumulative = 0.0043463255
DILUPBiCGStab:  Solving for epsilon, Initial residual = 0.029453747, Final residual = 4.8943204e-09, No Iterations 9
DILUPBiCGStab:  Solving for k, Initial residual = 0.037901305, Final residual = 8.4388326e-09, No Iterations 8
ExecutionTime = 1.335797 s  ClockTime = 2 s

volFieldValue cellMin write:
    min() of p = -26.360766 at location (0.030220548 -0.0044254382 0) in cell 2910 on processor 0
    min() of epsilon = 3.2661027 at location (0.00079461383 -0.024835925 2.2516643e-20) in cell 1379 on processor 0
    min() of k = 0.020775857 at location (0.00026417399 -0.024835675 2.1917467e-20) in cell 1321 on processor 0

volFieldValue cellMax write:
    max() of p = 19.833261 at location (0.20702204 0.025164502 -1.6001003e-20) in cell 2993 on processor 1
    max() of epsilon = 3355.5274 at location (0.0024111314 0.00016416083 0) in cell 264 on processor 0
    max() of k = 4.6398759 at location (0.044907429 -0.0085099165 0) in cell 4160 on processor 0

volFieldValue cellMinMag write:
    minMag() of U = 0.0236556 at location (0.0013291802 -0.024836175 0) in cell 1436 on processor 0

volFieldValue cellMaxMag write:
    maxMag() of U = 12.300628 at location (0.028711352 0.011422471 0) in cell 3217 on processor 0

surfaceFieldValue flowRateOutlet write:
    sum("outlet") of phi = 0.00025399944

Time = 27s

DILUPBiCGStab:  Solving for Ux, Initial residual = 0.0132672, Final residual = 5.9824668e-09, No Iterations 8
DILUPBiCGStab:  Solving for Uy, Initial residual = 0.038755839, Final residual = 5.5936501e-09, No Iterations 9
GAMG:  Solving for p, Initial residual = 0.041872597, Final residual = 0.00034187575, No Iterations 10
GAMG:  Solving for p, Initial residual = 0.0028291692, Final residual = 2.7925459e-05, No Iterations 9
GAMG:  Solving for p, Initial residual = 0.00083566844, Final residual = 8.2399206e-06, No Iterations 7
time step continuity errors : sum local = 0.00049562758, global = -2.7757163e-05, cumulative = 0.0043185684
DILUPBiCGStab:  Solving for epsilon, Initial residual = 0.027299266, Final residual = 3.6212102e-09, No Iterations 8
DILUPBiCGStab:  Solving for k, Initial residual = 0.036549709, Final residual = 2.330965e-09, No Iterations 9
ExecutionTime = 1.374599 s  ClockTime = 2 s

volFieldValue cellMin write:
    min() of p = -26.876297 at location (0.031753201 -0.0044483683 -1.3610827e-20) in cell 3024 on processor 0
    min() of epsilon = 2.7561403 at location (0.00079461383 -0.024835925 2.2516643e-20) in cell 1379 on processor 0
    min() of k = 0.017072363 at location (0.00026417399 -0.024835675 2.1917467e-20) in cell 1321 on processor 0

volFieldValue cellMax write:
    max() of p = 19.818957 at location (0.20702204 0.025164502 -1.6001003e-20) in cell 2993 on processor 1
    max() of epsilon = 3402.908 at location (0.0024111314 0.00016416083 0) in cell 264 on processor 0
    max() of k = 4.7425495 at location (0.046669327 -0.008535164 0) in cell 4274 on processor 0

volFieldValue cellMinMag write:
    minMag() of U = 0.075404897 at location (0.001867905 -0.024836425 0) in cell 1493 on processor 0

volFieldValue cellMaxMag write:
    maxMag() of U = 12.282396 at location (0.029462959 0.011452221 3.2103912e-20) in cell 3274 on processor 0

surfaceFieldValue flowRateOutlet write:
    sum("outlet") of phi = 0.0002539996

Time = 28s

DILUPBiCGStab:  Solving for Ux, Initial residual = 0.01240708, Final residual = 4.7061627e-09, No Iterations 8
DILUPBiCGStab:  Solving for Uy, Initial residual = 0.037834214, Final residual = 6.328285e-09, No Iterations 9
GAMG:  Solving for p, Initial residual = 0.041491443, Final residual = 0.00035048214, No Iterations 10
GAMG:  Solving for p, Initial residual = 0.002993763, Final residual = 2.7652006e-05, No Iterations 10
GAMG:  Solving for p, Initial residual = 0.00094616569, Final residual = 8.9881709e-06, No Iterations 7
time step continuity errors : sum local = 0.00051838064, global = 2.8111114e-05, cumulative = 0.0043466795
DILUPBiCGStab:  Solving for epsilon, Initial residual = 0.025372103, Final residual = 2.4612652e-09, No Iterations 9
DILUPBiCGStab:  Solving for k, Initial residual = 0.035251727, Final residual = 2.3488537e-09, No Iterations 9
ExecutionTime = 1.418745 s  ClockTime = 2 s

volFieldValue cellMin write:
    min() of p = -27.296245 at location (0.033309751 -0.0044716583 2.826519e-20) in cell 3138 on processor 0
    min() of epsilon = 2.2775568 at location (0.00079461383 -0.024835925 2.2516643e-20) in cell 1379 on processor 0
    min() of k = 0.013986729 at location (0.00026417399 -0.024835675 2.1917467e-20) in cell 1321 on processor 0

volFieldValue cellMax write:
    max() of p = 19.787904 at location (0.20702204 0.025164502 -1.6001003e-20) in cell 2993 on processor 1
    max() of epsilon = 3438.2127 at location (0.0024111314 0.00016416083 0) in cell 264 on processor 0
    max() of k = 4.8518358 at location (0.048458748 -0.0096728768 -2.7319686e-20) in cell 4444 on processor 0

volFieldValue cellMinMag write:
    minMag() of U = 0.042297053 at location (0.001867905 -0.024836425 0) in cell 1493 on processor 0

volFieldValue cellMaxMag write:
    maxMag() of U = 12.263536 at location (0.030983753 0.011512346 -1.5109333e-20) in cell 3388 on processor 0

surfaceFieldValue flowRateOutlet write:
    sum("outlet") of phi = 0.00025400041

Time = 29s

DILUPBiCGStab:  Solving for Ux, Initial residual = 0.011645181, Final residual = 4.2632918e-09, No Iterations 8
DILUPBiCGStab:  Solving for Uy, Initial residual = 0.036961317, Final residual = 7.5280051e-09, No Iterations 9
GAMG:  Solving for p, Initial residual = 0.042937738, Final residual = 0.00035962829, No Iterations 10
GAMG:  Solving for p, Initial residual = 0.0029970722, Final residual = 2.9081784e-05, No Iterations 10
GAMG:  Solving for p, Initial residual = 0.00099990475, Final residual = 9.6598524e-06, No Iterations 8
time step continuity errors : sum local = 0.00053377564, global = -3.3417665e-05, cumulative = 0.0043132618
DILUPBiCGStab:  Solving for epsilon, Initial residual = 0.023562879, Final residual = 4.8544781e-09, No Iterations 8
DILUPBiCGStab:  Solving for k, Initial residual = 0.033952543, Final residual = 4.201059e-09, No Iterations 9
ExecutionTime = 1.454652 s  ClockTime = 2 s

volFieldValue cellMin write:
    min() of p = -27.654078 at location (0.034097123 -0.0053232254 3.7914811e-20) in cell 3251 on processor 0
    min() of epsilon = 1.9315799 at location (0.00079461383 -0.024835925 2.2516643e-20) in cell 1379 on processor 0
    min() of k = 0.01228072 at location (0.00026417399 -0.024835675 2.1917467e-20) in cell 1321 on processor 0

volFieldValue cellMax write:
    max() of p = 19.734399 at location (0.20702204 0.025164502 -1.6001003e-20) in cell 2993 on processor 1
    max() of epsilon = 3465.3823 at location (0.0024111314 0.00016416083 0) in cell 264 on processor 0
    max() of k = 4.9479197 at location (0.05027609 -0.0096969517 5.3921922e-20) in cell 4558 on processor 0

volFieldValue cellMinMag write:
    minMag() of U = 0.013006271 at location (0.001867905 -0.024836425 0) in cell 1493 on processor 0

volFieldValue cellMaxMag write:
    maxMag() of U = 12.245006 at location (0.032528302 0.011573396 -1.4925521e-20) in cell 3502 on processor 0

surfaceFieldValue flowRateOutlet write:
    sum("outlet") of phi = 0.00025399951

Time = 30s

DILUPBiCGStab:  Solving for Ux, Initial residual = 0.010937455, Final residual = 4.1477205e-09, No Iterations 8
DILUPBiCGStab:  Solving for Uy, Initial residual = 0.035959978, Final residual = 9.3418641e-09, No Iterations 9
GAMG:  Solving for p, Initial residual = 0.042298048, Final residual = 0.00037065336, No Iterations 10
GAMG:  Solving for p, Initial residual = 0.0033012952, Final residual = 2.7880864e-05, No Iterations 11
GAMG:  Solving for p, Initial residual = 0.00097974163, Final residual = 9.7926887e-06, No Iterations 8
time step continuity errors : sum local = 0.00051961467, global = -3.3857498e-05, cumulative = 0.0042794043
DILUPBiCGStab:  Solving for epsilon, Initial residual = 0.022071961, Final residual = 2.6876473e-09, No Iterations 9
DILUPBiCGStab:  Solving for k, Initial residual = 0.03262517, Final residual = 3.3656854e-09, No Iterations 9
ExecutionTime = 1.490267 s  ClockTime = 2 s

volFieldValue cellMin write:
    min() of p = -27.937888 at location (0.035690222 -0.0053479978 -6.2716161e-20) in cell 3365 on processor 0
    min() of epsilon = 1.6731546 at location (0.00079461383 -0.024835925 2.2516643e-20) in cell 1379 on processor 0
    min() of k = 0.01075187 at location (0.00026417399 -0.024835675 2.1917467e-20) in cell 1321 on processor 0

volFieldValue cellMax write:
    max() of p = 19.662015 at location (0.20702204 0.025164502 -1.6001003e-20) in cell 2993 on processor 1
    max() of epsilon = 3461.402 at location (0.0024111314 0.00016416083 0) in cell 264 on processor 0
    max() of k = 5.047717 at location (0.052121735 -0.010802674 0) in cell 4728 on processor 0

volFieldValue cellMinMag write:
    minMag() of U = 0.048402574 at location (0.0013291841 -0.0237085 -6.9522045e-21) in cell 1378 on processor 0

volFieldValue cellMaxMag write:
    maxMag() of U = 12.223515 at location (0.033309592 0.011604296 0) in cell 3559 on processor 0

surfaceFieldValue flowRateOutlet write:
    sum("outlet") of phi = 0.00025399951

Time = 31s

DILUPBiCGStab:  Solving for Ux, Initial residual = 0.010264248, Final residual = 4.396573e-09, No Iterations 8
DILUPBiCGStab:  Solving for Uy, Initial residual = 0.034931287, Final residual = 4.0273083e-09, No Iterations 9
GAMG:  Solving for p, Initial residual = 0.043030816, Final residual = 0.00037224354, No Iterations 10
GAMG:  Solving for p, Initial residual = 0.0031315371, Final residual = 2.4603624e-05, No Iterations 11
GAMG:  Solving for p, Initial residual = 0.00097910102, Final residual = 9.6226693e-06, No Iterations 7
time step continuity errors : sum local = 0.00049269547, global = 4.1082178e-05, cumulative = 0.0043204865
DILUPBiCGStab:  Solving for epsilon, Initial residual = 0.020289747, Final residual = 3.8493354e-09, No Iterations 9
DILUPBiCGStab:  Solving for k, Initial residual = 0.03126633, Final residual = 2.0918869e-09, No Iterations 9
ExecutionTime = 1.524577 s  ClockTime = 2 s

volFieldValue cellMin write:
    min() of p = -28.080941 at location (0.037308224 -0.0053731579 0) in cell 3479 on processor 0
    min() of epsilon = 1.4589478 at location (0.00079461383 -0.024835925 2.2516643e-20) in cell 1379 on processor 0
    min() of k = 0.0098090705 at location (0.00026417399 -0.024835675 2.1917467e-20) in cell 1321 on processor 0

volFieldValue cellMax write:
    max() of p = 19.591564 at location (0.20702204 0.025164502 -1.6001003e-20) in cell 2993 on processor 1
    max() of epsilon = 3462.1086 at location (0.0024111314 0.00016416083 0) in cell 264 on processor 0
    max() of k = 5.1364416 at location (0.053996242 -0.010825799 0) in cell 4842 on processor 0

volFieldValue cellMinMag write:
    minMag() of U = 0.032256842 at location (0.0013291841 -0.0237085 -6.9522045e-21) in cell 1378 on processor 0

volFieldValue cellMaxMag write:
    maxMag() of U = 12.201402 at location (0.03489044 0.011666796 1.6159787e-20) in cell 3673 on processor 0

surfaceFieldValue flowRateOutlet write:
    sum("outlet") of phi = 0.0002540006

Time = 32s

DILUPBiCGStab:  Solving for Ux, Initial residual = 0.0096428161, Final residual = 5.4630261e-09, No Iterations 8
DILUPBiCGStab:  Solving for Uy, Initial residual = 0.033947714, Final residual = 5.0355619e-09, No Iterations 9
GAMG:  Solving for p, Initial residual = 0.042149679, Final residual = 0.00038426851, No Iterations 10
GAMG:  Solving for p, Initial residual = 0.0030977213, Final residual = 3.0670895e-05, No Iterations 11
GAMG:  Solving for p, Initial residual = 0.00095869138, Final residual = 9.1386024e-06, No Iterations 9
time step continuity errors : sum local = 0.0004527689, global = 1.6869303e-05, cumulative = 0.0043373558
DILUPBiCGStab:  Solving for epsilon, Initial residual = 0.018922939, Final residual = 1.5315628e-09, No Iterations 9
DILUPBiCGStab:  Solving for k, Initial residual = 0.029982446, Final residual = 1.9528501e-09, No Iterations 9
ExecutionTime = 1.560363 s  ClockTime = 2 s

volFieldValue cellMin write:
    min() of p = -28.172615 at location (0.038126673 -0.0053858854 0) in cell 3536 on processor 0
    min() of epsilon = 1.3206977 at location (0.00079461383 -0.024835925 2.2516643e-20) in cell 1379 on processor 0
    min() of k = 0.0090790486 at location (0.00026417399 -0.024835675 2.1917467e-20) in cell 1321 on processor 0

volFieldValue cellMax write:
    max() of p = 19.513088 at location (0.20702204 0.025164502 -1.6001003e-20) in cell 2993 on processor 1
    max() of epsilon = 3445.4429 at location (0.0029582642 0.00016523659 0) in cell 292 on processor 0
    max() of k = 5.2171057 at location (0.055899991 -0.011927099 0) in cell 5012 on processor 0

volFieldValue cellMinMag write:
    minMag() of U = 0.0075017068 at location (0.0029579447 -0.024836925 1.3603882e-20) in cell 1607 on processor 0

volFieldValue cellMaxMag write:
    maxMag() of U = 12.180446 at location (0.035690093 0.011698421 -3.063064e-20) in cell 3730 on processor 0

surfaceFieldValue flowRateOutlet write:
    sum("outlet") of phi = 0.00025400024

Time = 33s

DILUPBiCGStab:  Solving for Ux, Initial residual = 0.0091125354, Final residual = 6.6232289e-09, No Iterations 8
DILUPBiCGStab:  Solving for Uy, Initial residual = 0.032997097, Final residual = 6.3687859e-09, No Iterations 9
GAMG:  Solving for p, Initial residual = 0.04250372, Final residual = 0.00039132651, No Iterations 10
GAMG:  Solving for p, Initial residual = 0.0031872793, Final residual = 2.6063698e-05, No Iterations 11
GAMG:  Solving for p, Initial residual = 0.0010031801, Final residual = 8.7264199e-06, No Iterations 7
time step continuity errors : sum local = 0.00041936833, global = 2.9181525e-05, cumulative = 0.0043665373
DILUPBiCGStab:  Solving for epsilon, Initial residual = 0.017596344, Final residual = 8.4177246e-09, No Iterations 8
DILUPBiCGStab:  Solving for k, Initial residual = 0.028684473, Final residual = 9.858076e-09, No Iterations 8
ExecutionTime = 1.599025 s  ClockTime = 2 s

volFieldValue cellMin write:
    min() of p = -28.208649 at location (0.039782725 -0.0054116329 1.1468991e-20) in cell 3650 on processor 0
    min() of epsilon = 1.2389638 at location (0.00079461383 -0.024835925 2.2516643e-20) in cell 1379 on processor 0
    min() of k = 0.0082433281 at location (0.00026417399 -0.024835675 2.1917467e-20) in cell 1321 on processor 0

volFieldValue cellMax write:
    max() of p = 19.429255 at location (0.20702204 0.025164502 -1.6001003e-20) in cell 2993 on processor 1
    max() of epsilon = 3412.3191 at location (0.0029582642 0.00016523659 0) in cell 292 on processor 0
    max() of k = 5.2966285 at location (0.057833425 -0.011949149 -3.3612309e-20) in cell 5126 on processor 0

volFieldValue cellMinMag write:
    minMag() of U = 0.022747195 at location (0.001867905 -0.023709225 0) in cell 1435 on processor 0

volFieldValue cellMaxMag write:
    maxMag() of U = 12.159576 at location (0.036495983 0.01173027 0) in cell 3787 on processor 0

surfaceFieldValue flowRateOutlet write:
    sum("outlet") of phi = 0.00025400042

Time = 34s

DILUPBiCGStab:  Solving for Ux, Initial residual = 0.008628993, Final residual = 7.3116256e-09, No Iterations 8
DILUPBiCGStab:  Solving for Uy, Initial residual = 0.032098207, Final residual = 6.6285593e-09, No Iterations 9
GAMG:  Solving for p, Initial residual = 0.042540288, Final residual = 0.00039855418, No Iterations 10
GAMG:  Solving for p, Initial residual = 0.0031239221, Final residual = 2.9801709e-05, No Iterations 11
GAMG:  Solving for p, Initial residual = 0.0010238472, Final residual = 8.8051983e-06, No Iterations 8
time step continuity errors : sum local = 0.0004141776, global = -2.4419601e-05, cumulative = 0.0043421177
DILUPBiCGStab:  Solving for epsilon, Initial residual = 0.016521356, Final residual = 7.9684956e-10, No Iterations 9
DILUPBiCGStab:  Solving for k, Initial residual = 0.027433497, Final residual = 8.3206952e-09, No Iterations 8
ExecutionTime = 1.639447 s  ClockTime = 2 s

volFieldValue cellMin write:
    min() of p = -28.135749 at location (0.040620375 -0.0054246604 0) in cell 3707 on processor 0
    min() of epsilon = 1.1565644 at location (0.00079461383 -0.024835925 2.2516643e-20) in cell 1379 on processor 0
    min() of k = 0.0074938594 at location (0.00026417399 -0.024835675 2.1917467e-20) in cell 1321 on processor 0

volFieldValue cellMax write:
    max() of p = 19.354799 at location (0.20702204 0.025164502 -1.6001003e-20) in cell 2993 on processor 1
    max() of epsilon = 3373.7365 at location (0.0029582642 0.00016523659 0) in cell 292 on processor 0
    max() of k = 5.3591242 at location (0.059797131 -0.011971574 0) in cell 5240 on processor 0

volFieldValue cellMinMag write:
    minMag() of U = 0.018772753 at location (0.001867905 -0.023709225 0) in cell 1435 on processor 0

volFieldValue cellMaxMag write:
    maxMag() of U = 12.136128 at location (0.038951389 0.011827371 2.9935816e-20) in cell 3958 on processor 0

surfaceFieldValue flowRateOutlet write:
    sum("outlet") of phi = 0.00025399965

Time = 35s

DILUPBiCGStab:  Solving for Ux, Initial residual = 0.0082100841, Final residual = 8.5628458e-09, No Iterations 8
DILUPBiCGStab:  Solving for Uy, Initial residual = 0.031254592, Final residual = 7.3501407e-09, No Iterations 9
GAMG:  Solving for p, Initial residual = 0.041992298, Final residual = 0.00039402001, No Iterations 10
GAMG:  Solving for p, Initial residual = 0.0029575727, Final residual = 2.5003932e-05, No Iterations 11
GAMG:  Solving for p, Initial residual = 0.00094608939, Final residual = 7.3352868e-06, No Iterations 6
time step continuity errors : sum local = 0.00033997858, global = -3.1558155e-05, cumulative = 0.0043105596
DILUPBiCGStab:  Solving for epsilon, Initial residual = 0.015490404, Final residual = 6.7704046e-09, No Iterations 8
DILUPBiCGStab:  Solving for k, Initial residual = 0.026232642, Final residual = 7.3868351e-09, No Iterations 8
ExecutionTime = 1.685759 s  ClockTime = 2 s

volFieldValue cellMin write:
    min() of p = -27.974026 at location (0.042315375 -0.0054510179 2.38907e-20) in cell 3821 on processor 0
    min() of epsilon = 1.0791394 at location (0.00079461383 -0.024835925 2.2516643e-20) in cell 1379 on processor 0
    min() of k = 0.0068719364 at location (0.00026417399 -0.024835675 2.1917467e-20) in cell 1321 on processor 0

volFieldValue cellMax write:
    max() of p = 19.293106 at location (0.20702204 0.025164502 -1.6001003e-20) in cell 2993 on processor 1
    max() of epsilon = 3373.1654 at location (0.0018681129 -0.00018272626 0) in cell 265 on processor 0
    max() of k = 5.4179047 at location (0.060790423 -0.013056299 3.2950691e-20) in cell 5353 on processor 0

volFieldValue cellMinMag write:
    minMag() of U = 0.015555834 at location (0.0040649993 -0.024837425 0) in cell 1721 on processor 0

volFieldValue cellMaxMag write:
    maxMag() of U = 12.116518 at location (0.039782573 0.011860245 1.4129902e-20) in cell 4015 on processor 0

surfaceFieldValue flowRateOutlet write:
    sum("outlet") of phi = 0.00025399954

Time = 36s

DILUPBiCGStab:  Solving for Ux, Initial residual = 0.007840753, Final residual = 8.4603066e-09, No Iterations 8
DILUPBiCGStab:  Solving for Uy, Initial residual = 0.030477797, Final residual = 4.7805896e-09, No Iterations 10
GAMG:  Solving for p, Initial residual = 0.040833224, Final residual = 0.00040406724, No Iterations 10
GAMG:  Solving for p, Initial residual = 0.0030427395, Final residual = 2.7488824e-05, No Iterations 11
GAMG:  Solving for p, Initial residual = 0.0010524852, Final residual = 9.5757861e-06, No Iterations 7
time step continuity errors : sum local = 0.00044422423, global = 3.6883199e-05, cumulative = 0.0043474428
DILUPBiCGStab:  Solving for epsilon, Initial residual = 0.014549115, Final residual = 4.1569529e-09, No Iterations 8
DILUPBiCGStab:  Solving for k, Initial residual = 0.025059247, Final residual = 5.1150519e-09, No Iterations 8
ExecutionTime = 1.723712 s  ClockTime = 2 s

volFieldValue cellMin write:
    min() of p = -27.826907 at location (0.043172776 -0.0054643504 0) in cell 3878 on processor 0
    min() of epsilon = 1.0236108 at location (0.00079461383 -0.024835925 2.2516643e-20) in cell 1379 on processor 0
    min() of k = 0.0063154385 at location (0.00026417399 -0.024835675 2.1917467e-20) in cell 1321 on processor 0

volFieldValue cellMax write:
    max() of p = 19.217759 at location (0.20702204 0.025164502 -1.6001003e-20) in cell 2993 on processor 1
    max() of epsilon = 3379.1673 at location (0.0018681129 -0.00018272626 0) in cell 265 on processor 0
    max() of k = 5.4705227 at location (0.062800221 -0.013077399 1.7013702e-20) in cell 5461 on processor 0

volFieldValue cellMinMag write:
    minMag() of U = 0.024790491 at location (0.0024108148 -0.023709975 0) in cell 1492 on processor 0

volFieldValue cellMaxMag write:
    maxMag() of U = 12.097268 at location (0.040620227 0.01189337 -4.3643743e-20) in cell 4072 on processor 0

surfaceFieldValue flowRateOutlet write:
    sum("outlet") of phi = 0.00025400054

Time = 37s

DILUPBiCGStab:  Solving for Ux, Initial residual = 0.0075579699, Final residual = 8.5791707e-09, No Iterations 8
DILUPBiCGStab:  Solving for Uy, Initial residual = 0.029773476, Final residual = 6.928446e-09, No Iterations 10
GAMG:  Solving for p, Initial residual = 0.040053005, Final residual = 0.00039161103, No Iterations 10
GAMG:  Solving for p, Initial residual = 0.002768365, Final residual = 2.1759873e-05, No Iterations 11
GAMG:  Solving for p, Initial residual = 0.00076824864, Final residual = 7.5127409e-06, No Iterations 5
time step continuity errors : sum local = 0.00035217647, global = -5.981516e-05, cumulative = 0.0042876276
DILUPBiCGStab:  Solving for epsilon, Initial residual = 0.013694724, Final residual = 3.800419e-09, No Iterations 8
DILUPBiCGStab:  Solving for k, Initial residual = 0.023935875, Final residual = 3.2884789e-09, No Iterations 9
ExecutionTime = 1.759523 s  ClockTime = 2 s

volFieldValue cellMin write:
    min() of p = -27.620988 at location (0.044036776 -0.0054777854 -1.1014199e-20) in cell 3935 on processor 0
    min() of epsilon = 0.98629297 at location (0.00079461383 -0.024835925 2.2516643e-20) in cell 1379 on processor 0
    min() of k = 0.0063242742 at location (0.00026417399 -0.024835675 2.1917467e-20) in cell 1321 on processor 0

volFieldValue cellMax write:
    max() of p = 19.157454 at location (0.20702204 0.025164502 -1.6001003e-20) in cell 2993 on processor 1
    max() of epsilon = 3407.0725 at location (0.0024110251 -0.00018349127 -3.3057474e-20) in cell 293 on processor 0
    max() of k = 5.5081264 at location (0.064841378 -0.013098824 -3.2100604e-20) in cell 5561 on processor 0

volFieldValue cellMinMag write:
    minMag() of U = 0.012483913 at location (0.044036697 -0.010702999 -3.7152146e-20) in cell 4215 on processor 0

volFieldValue cellMaxMag write:
    maxMag() of U = 12.079137 at location (0.041464431 0.011926745 0) in cell 4129 on processor 0

surfaceFieldValue flowRateOutlet write:
    sum("outlet") of phi = 0.00025399913

Time = 38s

DILUPBiCGStab:  Solving for Ux, Initial residual = 0.007296246, Final residual = 4.1018798e-09, No Iterations 9
DILUPBiCGStab:  Solving for Uy, Initial residual = 0.02914131, Final residual = 9.8437741e-09, No Iterations 9
GAMG:  Solving for p, Initial residual = 0.03834088, Final residual = 0.00037778761, No Iterations 10
GAMG:  Solving for p, Initial residual = 0.0026498822, Final residual = 2.2685151e-05, No Iterations 11
GAMG:  Solving for p, Initial residual = 0.0008687936, Final residual = 8.1254229e-06, No Iterations 7
time step continuity errors : sum local = 0.00038425019, global = 4.5020533e-05, cumulative = 0.0043326481
DILUPBiCGStab:  Solving for epsilon, Initial residual = 0.013023176, Final residual = 3.3060603e-09, No Iterations 8
DILUPBiCGStab:  Solving for k, Initial residual = 0.022825076, Final residual = 5.9151468e-09, No Iterations 8
ExecutionTime = 1.794843 s  ClockTime = 2 s

volFieldValue cellMin write:
    min() of p = -27.339935 at location (0.044907526 -0.0054913254 -3.4275604e-20) in cell 3992 on processor 0
    min() of epsilon = 0.98285043 at location (0.00079461383 -0.024835925 2.2516643e-20) in cell 1379 on processor 0
    min() of k = 0.0064291142 at location (0.00026417399 -0.024835675 2.1917467e-20) in cell 1321 on processor 0

volFieldValue cellMax write:
    max() of p = 19.117256 at location (0.20702204 0.025164502 -1.6001003e-20) in cell 2993 on processor 1
    max() of epsilon = 3418.6465 at location (0.0024110251 -0.00018349127 -3.3057474e-20) in cell 293 on processor 0
    max() of k = 5.5368912 at location (0.066914468 -0.014188349 -7.5445058e-21) in cell 5695 on processor 0

volFieldValue cellMinMag write:
    minMag() of U = 0.019420249 at location (0.04490744 -0.010713724 4.7252657e-20) in cell 4272 on processor 0

volFieldValue cellMaxMag write:
    maxMag() of U = 12.06259 at location (0.041464431 0.011926745 0) in cell 4129 on processor 0

surfaceFieldValue flowRateOutlet write:
    sum("outlet") of phi = 0.00025400065

Time = 39s

DILUPBiCGStab:  Solving for Ux, Initial residual = 0.007088402, Final residual = 4.1238672e-09, No Iterations 9
DILUPBiCGStab:  Solving for Uy, Initial residual = 0.028596161, Final residual = 7.2466813e-09, No Iterations 9
GAMG:  Solving for p, Initial residual = 0.036600143, Final residual = 0.00028235452, No Iterations 11
GAMG:  Solving for p, Initial residual = 0.0025458359, Final residual = 2.0021698e-05, No Iterations 10
GAMG:  Solving for p, Initial residual = 0.00083971981, Final residual = 7.2775909e-06, No Iterations 6
time step continuity errors : sum local = 0.0003473826, global = -5.7619313e-05, cumulative = 0.0042750288
DILUPBiCGStab:  Solving for epsilon, Initial residual = 0.012428947, Final residual = 3.7457883e-09, No Iterations 8
DILUPBiCGStab:  Solving for k, Initial residual = 0.021777736, Final residual = 6.9049775e-09, No Iterations 8
ExecutionTime = 1.829533 s  ClockTime = 2 s

volFieldValue cellMin write:
    min() of p = -27.011044 at location (0.045785077 -0.0055049704 0) in cell 4049 on processor 0
    min() of epsilon = 0.99064611 at location (0.00079461383 -0.024835925 2.2516643e-20) in cell 1379 on processor 0
[...]
DILUPBiCGStab:  Solving for Uy, Initial residual = 0.0011096103, Final residual = 3.3414831e-09, No Iterations 7
GAMG:  Solving for p, Initial residual = 0.0013018843, Final residual = 1.2231087e-05, No Iterations 12
GAMG:  Solving for p, Initial residual = 0.00033777832, Final residual = 3.007271e-06, No Iterations 10
GAMG:  Solving for p, Initial residual = 0.00019493783, Final residual = 1.8927724e-06, No Iterations 8
time step continuity errors : sum local = 6.36702e-05, global = -6.1229972e-06, cumulative = 0.0041734975
DILUPBiCGStab:  Solving for epsilon, Initial residual = 0.00030087929, Final residual = 9.638117e-09, No Iterations 5
DILUPBiCGStab:  Solving for k, Initial residual = 0.00042423806, Final residual = 6.3505206e-09, No Iterations 5
ExecutionTime = 11.660044 s  ClockTime = 12 s

volFieldValue cellMin write:
    min() of p = -6.8609593 at location (0.048458745 -0.0248577 0) in cell 5228 on processor 0
    min() of epsilon = 0.17951112 at location (0.00026417399 -0.024835675 2.1917467e-20) in cell 1321 on processor 0
    min() of k = 0.00062298476 at location (0.00026417399 -0.024835675 2.1917467e-20) in cell 1321 on processor 0

volFieldValue cellMax write:
    max() of p = 16.921281 at location (0.20702204 0.025164502 -1.6001003e-20) in cell 2993 on processor 1
    max() of epsilon = 3490.098 at location (0.0029581573 -0.00018426227 0) in cell 323 on processor 0
    max() of k = 5.932934 at location (0.12315207 -0.0067080187 0) in cell 3515 on processor 1

volFieldValue cellMinMag write:
    minMag() of U = 0.0043684147 at location (0.0013291841 -0.0237085 -6.9522045e-21) in cell 1378 on processor 0

volFieldValue cellMaxMag write:
    maxMag() of U = 11.31693 at location (-0.0198086 0.0120018 0) in cell 170 on processor 0

surfaceFieldValue flowRateOutlet write:
    sum("outlet") of phi = 0.00025399991

Time = 254s

DILUPBiCGStab:  Solving for Ux, Initial residual = 0.00016610167, Final residual = 6.7149681e-09, No Iterations 5
DILUPBiCGStab:  Solving for Uy, Initial residual = 0.0010602762, Final residual = 3.2197772e-09, No Iterations 7
GAMG:  Solving for p, Initial residual = 0.0013339095, Final residual = 1.2817696e-05, No Iterations 12
GAMG:  Solving for p, Initial residual = 0.00030877216, Final residual = 2.8453082e-06, No Iterations 10
GAMG:  Solving for p, Initial residual = 0.00017382716, Final residual = 1.4266887e-06, No Iterations 8
time step continuity errors : sum local = 4.7978443e-05, global = -4.4538401e-06, cumulative = 0.0041690437
DILUPBiCGStab:  Solving for epsilon, Initial residual = 0.00029054733, Final residual = 9.0690673e-09, No Iterations 5
DILUPBiCGStab:  Solving for k, Initial residual = 0.00041448516, Final residual = 5.23767e-09, No Iterations 5
ExecutionTime = 11.696726 s  ClockTime = 12 s

volFieldValue cellMin write:
    min() of p = -6.8564058 at location (0.048458745 -0.0248577 0) in cell 5228 on processor 0
    min() of epsilon = 0.17853662 at location (0.00026417399 -0.024835675 2.1917467e-20) in cell 1321 on processor 0
    min() of k = 0.0006200467 at location (0.00026417399 -0.024835675 2.1917467e-20) in cell 1321 on processor 0

volFieldValue cellMax write:
    max() of p = 16.928312 at location (0.20702204 0.025164502 -1.6001003e-20) in cell 2993 on processor 1
    max() of epsilon = 3489.9612 at location (0.0029581573 -0.00018426227 0) in cell 323 on processor 0
    max() of k = 5.9306986 at location (0.12315207 -0.0067080187 0) in cell 3515 on processor 1

volFieldValue cellMinMag write:
    minMag() of U = 0.0043961446 at location (0.0013291841 -0.0237085 -6.9522045e-21) in cell 1378 on processor 0

volFieldValue cellMaxMag write:
    maxMag() of U = 11.31693 at location (-0.0198086 0.0120018 0) in cell 170 on processor 0

surfaceFieldValue flowRateOutlet write:
    sum("outlet") of phi = 0.00025399994

Time = 255s

DILUPBiCGStab:  Solving for Ux, Initial residual = 0.00015858157, Final residual = 6.9894499e-09, No Iterations 5
DILUPBiCGStab:  Solving for Uy, Initial residual = 0.0010120767, Final residual = 2.5686719e-09, No Iterations 7
GAMG:  Solving for p, Initial residual = 0.0012101154, Final residual = 1.0569095e-05, No Iterations 13
GAMG:  Solving for p, Initial residual = 0.00029186092, Final residual = 2.4720536e-06, No Iterations 10
GAMG:  Solving for p, Initial residual = 0.00016769242, Final residual = 1.5260719e-06, No Iterations 8
time step continuity errors : sum local = 5.1290093e-05, global = -5.2168049e-06, cumulative = 0.0041638268
DILUPBiCGStab:  Solving for epsilon, Initial residual = 0.00027700584, Final residual = 6.2476044e-09, No Iterations 5
DILUPBiCGStab:  Solving for k, Initial residual = 0.00040570814, Final residual = 5.5769639e-09, No Iterations 5
ExecutionTime = 11.759164 s  ClockTime = 12 s

volFieldValue cellMin write:
    min() of p = -6.8508665 at location (0.048458745 -0.0248577 0) in cell 5228 on processor 0
    min() of epsilon = 0.17769462 at location (0.00026417399 -0.024835675 2.1917467e-20) in cell 1321 on processor 0
    min() of k = 0.00061698008 at location (0.00026417399 -0.024835675 2.1917467e-20) in cell 1321 on processor 0

volFieldValue cellMax write:
    max() of p = 16.936697 at location (0.20702204 0.025164502 -1.6001003e-20) in cell 2993 on processor 1
    max() of epsilon = 3489.8168 at location (0.0029581573 -0.00018426227 0) in cell 323 on processor 0
    max() of k = 5.9285322 at location (0.12315207 -0.0067080187 0) in cell 3515 on processor 1

volFieldValue cellMinMag write:
    minMag() of U = 0.0044203819 at location (0.0013291841 -0.0237085 -6.9522045e-21) in cell 1378 on processor 0

volFieldValue cellMaxMag write:
    maxMag() of U = 11.31693 at location (-0.0198086 0.0120018 0) in cell 170 on processor 0

surfaceFieldValue flowRateOutlet write:
    sum("outlet") of phi = 0.00025399992

Time = 256s

DILUPBiCGStab:  Solving for Ux, Initial residual = 0.00015113791, Final residual = 7.3872371e-09, No Iterations 5
DILUPBiCGStab:  Solving for Uy, Initial residual = 0.00096649767, Final residual = 5.2902193e-09, No Iterations 6
GAMG:  Solving for p, Initial residual = 0.0011928246, Final residual = 1.0827407e-05, No Iterations 13
GAMG:  Solving for p, Initial residual = 0.00028652712, Final residual = 2.7667596e-06, No Iterations 9
GAMG:  Solving for p, Initial residual = 0.0001616205, Final residual = 1.6079995e-06, No Iterations 8
time step continuity errors : sum local = 5.3991275e-05, global = -4.4466333e-06, cumulative = 0.0041593802
DILUPBiCGStab:  Solving for epsilon, Initial residual = 0.00026538219, Final residual = 8.5099554e-09, No Iterations 5
DILUPBiCGStab:  Solving for k, Initial residual = 0.00039828404, Final residual = 4.4198161e-09, No Iterations 5
ExecutionTime = 11.810533 s  ClockTime = 12 s

volFieldValue cellMin write:
    min() of p = -6.844803 at location (0.048458745 -0.0248577 0) in cell 5228 on processor 0
    min() of epsilon = 0.17681578 at location (0.00026417399 -0.024835675 2.1917467e-20) in cell 1321 on processor 0
    min() of k = 0.00061351101 at location (0.00026417399 -0.024835675 2.1917467e-20) in cell 1321 on processor 0

volFieldValue cellMax write:
    max() of p = 16.946072 at location (0.20702204 0.025164502 -1.6001003e-20) in cell 2993 on processor 1
    max() of epsilon = 3489.6663 at location (0.0029581573 -0.00018426227 0) in cell 323 on processor 0
    max() of k = 5.9264468 at location (0.12315207 -0.0067080187 0) in cell 3515 on processor 1

volFieldValue cellMinMag write:
    minMag() of U = 0.0044233305 at location (0.0013291841 -0.0237085 -6.9522045e-21) in cell 1378 on processor 0

volFieldValue cellMaxMag write:
    maxMag() of U = 11.31693 at location (-0.0198086 0.0120018 0) in cell 170 on processor 0

surfaceFieldValue flowRateOutlet write:
    sum("outlet") of phi = 0.00025399994

Time = 257s

DILUPBiCGStab:  Solving for Ux, Initial residual = 0.00014408889, Final residual = 9.7388008e-09, No Iterations 4
DILUPBiCGStab:  Solving for Uy, Initial residual = 0.00093004406, Final residual = 4.633696e-09, No Iterations 6
GAMG:  Solving for p, Initial residual = 0.0012998719, Final residual = 1.1165522e-05, No Iterations 13
GAMG:  Solving for p, Initial residual = 0.00026733608, Final residual = 2.5176916e-06, No Iterations 10
GAMG:  Solving for p, Initial residual = 0.00014483372, Final residual = 1.4111296e-06, No Iterations 9
time step continuity errors : sum local = 4.7339734e-05, global = 3.2821916e-06, cumulative = 0.0041626624
DILUPBiCGStab:  Solving for epsilon, Initial residual = 0.00025856605, Final residual = 7.2826261e-09, No Iterations 5
DILUPBiCGStab:  Solving for k, Initial residual = 0.00039195611, Final residual = 4.0506672e-09, No Iterations 5
ExecutionTime = 11.864942 s  ClockTime = 13 s

volFieldValue cellMin write:
    min() of p = -6.8380587 at location (0.048458745 -0.0248577 0) in cell 5228 on processor 0
    min() of epsilon = 0.1758216 at location (0.00026417399 -0.024835675 2.1917467e-20) in cell 1321 on processor 0
    min() of k = 0.00061009875 at location (0.00026417399 -0.024835675 2.1917467e-20) in cell 1321 on processor 0

volFieldValue cellMax write:
    max() of p = 16.956321 at location (0.20702204 0.025164502 -1.6001003e-20) in cell 2993 on processor 1
    max() of epsilon = 3489.5015 at location (0.0029581573 -0.00018426227 0) in cell 323 on processor 0
    max() of k = 5.9244526 at location (0.12315207 -0.0067080187 0) in cell 3515 on processor 1

volFieldValue cellMinMag write:
    minMag() of U = 0.0044188219 at location (0.0013291841 -0.0237085 -6.9522045e-21) in cell 1378 on processor 0

volFieldValue cellMaxMag write:
    maxMag() of U = 11.31693 at location (-0.0198086 0.0120018 0) in cell 170 on processor 0

surfaceFieldValue flowRateOutlet write:
    sum("outlet") of phi = 0.00025400005

Time = 258s

DILUPBiCGStab:  Solving for Ux, Initial residual = 0.00013743962, Final residual = 9.3586166e-09, No Iterations 4
DILUPBiCGStab:  Solving for Uy, Initial residual = 0.00089744146, Final residual = 5.4463464e-09, No Iterations 6
GAMG:  Solving for p, Initial residual = 0.0014474903, Final residual = 1.1618926e-05, No Iterations 13
GAMG:  Solving for p, Initial residual = 0.00026033912, Final residual = 2.5410962e-06, No Iterations 10
GAMG:  Solving for p, Initial residual = 0.00013687255, Final residual = 1.0288346e-06, No Iterations 10
time step continuity errors : sum local = 3.4537642e-05, global = -2.0821619e-06, cumulative = 0.0041605802
DILUPBiCGStab:  Solving for epsilon, Initial residual = 0.00024507263, Final residual = 7.090379e-09, No Iterations 5
DILUPBiCGStab:  Solving for k, Initial residual = 0.00038282709, Final residual = 3.5798226e-09, No Iterations 5
ExecutionTime = 11.919834 s  ClockTime = 13 s

volFieldValue cellMin write:
    min() of p = -6.8311503 at location (0.048458745 -0.0248577 0) in cell 5228 on processor 0
    min() of epsilon = 0.17484371 at location (0.00026417399 -0.024835675 2.1917467e-20) in cell 1321 on processor 0
    min() of k = 0.00060753076 at location (0.00026417399 -0.024835675 2.1917467e-20) in cell 1321 on processor 0

volFieldValue cellMax write:
    max() of p = 16.967258 at location (0.20702204 0.025164502 -1.6001003e-20) in cell 2993 on processor 1
    max() of epsilon = 3489.3854 at location (0.0029581573 -0.00018426227 0) in cell 323 on processor 0
    max() of k = 5.9225577 at location (0.12315207 -0.0067080187 0) in cell 3515 on processor 1

volFieldValue cellMinMag write:
    minMag() of U = 0.0044897574 at location (0.0013291841 -0.0237085 -6.9522045e-21) in cell 1378 on processor 0

volFieldValue cellMaxMag write:
    maxMag() of U = 11.31693 at location (-0.0198086 0.0120018 0) in cell 170 on processor 0

surfaceFieldValue flowRateOutlet write:
    sum("outlet") of phi = 0.00025399997

Time = 259s

DILUPBiCGStab:  Solving for Ux, Initial residual = 0.00013031248, Final residual = 9.0007649e-09, No Iterations 4
DILUPBiCGStab:  Solving for Uy, Initial residual = 0.00085105846, Final residual = 1.6284801e-09, No Iterations 7
GAMG:  Solving for p, Initial residual = 0.0010979027, Final residual = 8.2450597e-06, No Iterations 15
GAMG:  Solving for p, Initial residual = 0.00024820871, Final residual = 2.0568823e-06, No Iterations 9
GAMG:  Solving for p, Initial residual = 0.00013045456, Final residual = 9.5218152e-07, No Iterations 10
time step continuity errors : sum local = 3.1904204e-05, global = -1.985488e-06, cumulative = 0.0041585948
DILUPBiCGStab:  Solving for epsilon, Initial residual = 0.00023174068, Final residual = 4.9104716e-09, No Iterations 5
DILUPBiCGStab:  Solving for k, Initial residual = 0.00037566244, Final residual = 3.4425358e-09, No Iterations 5
ExecutionTime = 11.980884 s  ClockTime = 13 s

volFieldValue cellMin write:
    min() of p = -6.8234788 at location (0.048458745 -0.0248577 0) in cell 5228 on processor 0
    min() of epsilon = 0.17410777 at location (0.00026417399 -0.024835675 2.1917467e-20) in cell 1321 on processor 0
    min() of k = 0.0006040735 at location (0.00026417399 -0.024835675 2.1917467e-20) in cell 1321 on processor 0

volFieldValue cellMax write:
    max() of p = 16.978852 at location (0.20702204 0.025164502 -1.6001003e-20) in cell 2993 on processor 1
    max() of epsilon = 3489.2562 at location (0.0029581573 -0.00018426227 0) in cell 323 on processor 0
    max() of k = 5.9207723 at location (0.12315207 -0.0067080187 0) in cell 3515 on processor 1

volFieldValue cellMinMag write:
    minMag() of U = 0.0044745379 at location (0.0013291841 -0.0237085 -6.9522045e-21) in cell 1378 on processor 0

volFieldValue cellMaxMag write:
    maxMag() of U = 11.31693 at location (-0.0198086 0.0120018 0) in cell 170 on processor 0

surfaceFieldValue flowRateOutlet write:
    sum("outlet") of phi = 0.00025399997

Time = 260s

DILUPBiCGStab:  Solving for Ux, Initial residual = 0.00012378815, Final residual = 9.0373291e-09, No Iterations 4
DILUPBiCGStab:  Solving for Uy, Initial residual = 0.00081674016, Final residual = 1.5709238e-09, No Iterations 7
GAMG:  Solving for p, Initial residual = 0.0010988581, Final residual = 8.2558743e-06, No Iterations 15
GAMG:  Solving for p, Initial residual = 0.00024466394, Final residual = 2.4357213e-06, No Iterations 8
GAMG:  Solving for p, Initial residual = 0.00012931475, Final residual = 9.9349941e-07, No Iterations 10
time step continuity errors : sum local = 3.3258236e-05, global = -1.9528501e-06, cumulative = 0.0041566419
DILUPBiCGStab:  Solving for epsilon, Initial residual = 0.00022311952, Final residual = 6.4089645e-09, No Iterations 5
DILUPBiCGStab:  Solving for k, Initial residual = 0.00036809402, Final residual = 7.8330033e-09, No Iterations 5
ExecutionTime = 12.037706 s  ClockTime = 13 s

volFieldValue cellMin write:
    min() of p = -6.8157735 at location (0.048458745 -0.0248577 0) in cell 5228 on processor 0
    min() of epsilon = 0.17311698 at location (0.00026417399 -0.024835675 2.1917467e-20) in cell 1321 on processor 0
    min() of k = 0.00060014301 at location (0.00026417399 -0.024835675 2.1917467e-20) in cell 1321 on processor 0

volFieldValue cellMax write:
    max() of p = 16.99056 at location (0.20702204 0.025164502 -1.6001003e-20) in cell 2993 on processor 1
    max() of epsilon = 3489.1065 at location (0.0029581573 -0.00018426227 0) in cell 323 on processor 0
    max() of k = 5.9191062 at location (0.12167757 -0.0066850937 -2.6696355e-20) in cell 3572 on processor 1

volFieldValue cellMinMag write:
    minMag() of U = 0.0044578017 at location (0.0013291841 -0.0237085 -6.9522045e-21) in cell 1378 on processor 0

volFieldValue cellMaxMag write:
    maxMag() of U = 11.31693 at location (-0.0198086 0.0120018 0) in cell 170 on processor 0

surfaceFieldValue flowRateOutlet write:
    sum("outlet") of phi = 0.00025399997

Time = 261s

DILUPBiCGStab:  Solving for Ux, Initial residual = 0.00011763172, Final residual = 9.9713642e-09, No Iterations 4
DILUPBiCGStab:  Solving for Uy, Initial residual = 0.00078938431, Final residual = 1.7209253e-09, No Iterations 7
GAMG:  Solving for p, Initial residual = 0.0010790538, Final residual = 8.3565924e-06, No Iterations 15
GAMG:  Solving for p, Initial residual = 0.0002350271, Final residual = 2.1474905e-06, No Iterations 9
GAMG:  Solving for p, Initial residual = 0.0001255923, Final residual = 9.3799847e-07, No Iterations 10
time step continuity errors : sum local = 3.1416693e-05, global = -1.8480245e-06, cumulative = 0.0041547939
DILUPBiCGStab:  Solving for epsilon, Initial residual = 0.00021043969, Final residual = 6.0821522e-09, No Iterations 5
DILUPBiCGStab:  Solving for k, Initial residual = 0.0003581789, Final residual = 9.6017279e-09, No Iterations 5
ExecutionTime = 12.138154 s  ClockTime = 13 s

volFieldValue cellMin write:
    min() of p = -6.8080123 at location (0.048458745 -0.0248577 0) in cell 5228 on processor 0
    min() of epsilon = 0.17199056 at location (0.00026417399 -0.024835675 2.1917467e-20) in cell 1321 on processor 0
    min() of k = 0.00059701594 at location (0.00026417399 -0.024835675 2.1917467e-20) in cell 1321 on processor 0

volFieldValue cellMax write:
    max() of p = 17.002512 at location (0.20702204 0.025164502 -1.6001003e-20) in cell 2993 on processor 1
    max() of epsilon = 3488.9931 at location (0.0029581573 -0.00018426227 0) in cell 323 on processor 0
    max() of k = 5.9175765 at location (0.12167757 -0.0066850937 -2.6696355e-20) in cell 3572 on processor 1

volFieldValue cellMinMag write:
    minMag() of U = 0.0045294951 at location (0.0013291841 -0.0237085 -6.9522045e-21) in cell 1378 on processor 0

volFieldValue cellMaxMag write:
    maxMag() of U = 11.31693 at location (-0.0198086 0.0120018 0) in cell 170 on processor 0

surfaceFieldValue flowRateOutlet write:
    sum("outlet") of phi = 0.00025399997

Time = 262s

DILUPBiCGStab:  Solving for Ux, Initial residual = 0.00011157265, Final residual = 5.9178306e-09, No Iterations 5
DILUPBiCGStab:  Solving for Uy, Initial residual = 0.00076480802, Final residual = 1.565601e-09, No Iterations 7
GAMG:  Solving for p, Initial residual = 0.00089260922, Final residual = 8.3918646e-06, No Iterations 15
GAMG:  Solving for p, Initial residual = 0.00022683961, Final residual = 2.1665574e-06, No Iterations 9
GAMG:  Solving for p, Initial residual = 0.00012438882, Final residual = 1.0194086e-06, No Iterations 10
time step continuity errors : sum local = 3.4096747e-05, global = -2.0059947e-06, cumulative = 0.0041527879
DILUPBiCGStab:  Solving for epsilon, Initial residual = 0.0001976695, Final residual = 9.8779114e-10, No Iterations 6
DILUPBiCGStab:  Solving for k, Initial residual = 0.00034838929, Final residual = 2.9873036e-09, No Iterations 5
ExecutionTime = 12.213707 s  ClockTime = 13 s


SIMPLE solution converged in 262 iterations

streamlines streamlines write:
    Seeded 10 particles
    Sampled 12040 locations
volFieldValue cellMin write:
    min() of p = -6.8001394 at location (0.048458745 -0.0248577 0) in cell 5228 on processor 0
    min() of epsilon = 0.1710944 at location (0.00026417399 -0.024835675 2.1917467e-20) in cell 1321 on processor 0
    min() of k = 0.00059324265 at location (0.00026417399 -0.024835675 2.1917467e-20) in cell 1321 on processor 0

volFieldValue cellMax write:
    max() of p = 17.014339 at location (0.20702204 0.025164502 -1.6001003e-20) in cell 2993 on processor 1
    max() of epsilon = 3488.8718 at location (0.0029581573 -0.00018426227 0) in cell 323 on processor 0
    max() of k = 5.9161632 at location (0.12167757 -0.0066850937 -2.6696355e-20) in cell 3572 on processor 1

volFieldValue cellMinMag write:
    minMag() of U = 0.0045277376 at location (0.0013291841 -0.0237085 -6.9522045e-21) in cell 1378 on processor 0

volFieldValue cellMaxMag write:
    maxMag() of U = 11.31693 at location (-0.0198086 0.0120018 0) in cell 170 on processor 0

surfaceFieldValue flowRateOutlet write:
    sum("outlet") of phi = 0.00025399997

End

Finalising parallel run
